data_tf-10
_audit_creation_date               2020-04-07
_audit_creation_method
;
Olex2 1.3
(compiled 2020.02.04 svn.rd84adfe8 for OlexSys, GUI svn.r6032)
;
_shelx_SHELXL_version_number       '2018/3'
_audit_contact_author_address      ?
_audit_contact_author_email        ?
_audit_contact_author_name         ''
_audit_contact_author_phone        ?
_publ_contact_author_id_orcid      ?
_publ_section_references
;
Dolomanov, O.V., Bourhis, L.J., Gildea, R.J, Howard, J.A.K. & Puschmann, H.
 (2009), J. Appl. Cryst. 42, 339-341.

Sheldrick, G.M. (2015). Acta Cryst. A71, 3-8.

Sheldrick, G.M. (2015). Acta Cryst. C71, 3-8.
;
_chemical_name_common              ?
_chemical_name_systematic          ?
_chemical_formula_moiety           'C7 H5 N O Se'
_chemical_formula_sum              'C7 H5 N O Se'
_chemical_formula_weight           198.08
_chemical_melting_point            ?
_chemical_oxdiff_formula           C7H5NOSe
loop_
  _atom_type_symbol
  _atom_type_description
  _atom_type_scat_dispersion_real
  _atom_type_scat_dispersion_imag
  _atom_type_scat_source
 'C' 'C' 0.0181 0.0091 'International Tables Vol C Tables 4.2.6.8 and 6.1.1.4'
 'H' 'H' 0.0000 0.0000 'International Tables Vol C Tables 4.2.6.8 and 6.1.1.4'
 'N' 'N' 0.0311 0.0180 'International Tables Vol C Tables 4.2.6.8 and 6.1.1.4'
 'O' 'O' 0.0492 0.0322 'International Tables Vol C Tables 4.2.6.8 and 6.1.1.4'
 'Se' 'Se' -0.7943 1.1372
 'International Tables Vol C Tables 4.2.6.8 and 6.1.1.4'

_shelx_space_group_comment
;
The symmetry employed for this shelxl refinement is uniquely defined
by the following loop, which should always be used as a source of
symmetry information in preference to the above space-group names.
They are only intended as comments.
;
_space_group_crystal_system        'monoclinic'
_space_group_IT_number             14
_space_group_name_H-M_alt          'P 1 21/n 1'
_space_group_name_Hall             '-P 2yn'
loop_
  _space_group_symop_operation_xyz
 'x, y, z'
 '-x+1/2, y+1/2, -z+1/2'
 '-x, -y, -z'
 'x-1/2, -y-1/2, z-1/2'

_cell_length_a                     8.7887(2)
_cell_length_b                     6.71260(10)
_cell_length_c                     12.2004(2)
_cell_angle_alpha                  90
_cell_angle_beta                   107.285(2)
_cell_angle_gamma                  90
_cell_volume                       687.26(2)
_cell_formula_units_Z              4
_cell_measurement_reflns_used      3241
_cell_measurement_temperature      100(1)
_cell_measurement_theta_max        76.0560
_cell_measurement_theta_min        5.5090
_shelx_estimated_absorpt_T_max     ?
_shelx_estimated_absorpt_T_min     ?
_exptl_absorpt_coefficient_mu      6.757
_exptl_absorpt_correction_T_max    1.000
_exptl_absorpt_correction_T_min    0.420
_exptl_absorpt_correction_type     gaussian
_exptl_absorpt_process_details
;
CrysAlisPro 1.171.40.67a (Rigaku Oxford Diffraction, 2019)
Numerical absorption correction based on gaussian integration over
			a multifaceted crystal model
Empirical absorption correction using spherical harmonics,
 implemented in SCALE3 ABSPACK scaling algorithm.
;
_exptl_absorpt_special_details     ?
_exptl_crystal_colour              'light yellow'
_exptl_crystal_colour_modifier     light
_exptl_crystal_colour_primary      yellow
_exptl_crystal_density_diffrn      1.914
_exptl_crystal_density_meas        ?
_exptl_crystal_density_method      ?
_exptl_crystal_description         block
_exptl_crystal_F_000               384
loop_
  _exptl_crystal_face_index_h
  _exptl_crystal_face_index_k
  _exptl_crystal_face_index_l
  _exptl_crystal_face_perp_dist
 -2 0 1 0.0297
 2 0 -1 0.0555
 -1 -2 -2 0.0537
 1 2 1 0.0951
 -1 -2 0 0.0555
 3 0 5 0.0793
 -3 1 8 0.0704
 3 3 -6 0.0961
 3 -2 -6 0.0719
 2 4 -2 0.1003
 4 -3 -1 0.0544
 5 -1 1 0.0601
 0 3 -5 0.0900
 2 1 -8 0.0962

_exptl_crystal_size_max            0.214
_exptl_crystal_size_mid            0.172
_exptl_crystal_size_min            0.085
loop_
  _exptl_oxdiff_crystal_face_indexfrac_h
  _exptl_oxdiff_crystal_face_indexfrac_k
  _exptl_oxdiff_crystal_face_indexfrac_l
  _exptl_oxdiff_crystal_face_x
  _exptl_oxdiff_crystal_face_y
  _exptl_oxdiff_crystal_face_z
 -1.9987 0.0000 0.9983 0.3018 0.1606 0.0802
 1.9987 -0.0000 -0.9983 -0.3018 -0.1606 -0.0802
 -0.9992 -1.9988 -1.9974 -0.1279 0.3532 0.4490
 0.9994 1.9986 0.9981 0.0614 -0.2400 -0.4633
 -0.9996 -1.9985 0.0011 0.0051 0.1267 0.4775
 2.9822 -0.3533 5.1873 -0.0259 -0.9982 0.0544
 -3.1009 0.5606 7.5534 0.8994 -0.4287 0.0857
 2.8345 2.7779 -5.6206 -0.5512 0.2629 -0.7919
 2.7696 -2.4604 -6.1919 -0.8768 0.3102 0.3673
 2.0961 4.0218 -1.7127 -0.1341 -0.0727 -0.9883
 3.9191 -3.1637 -1.3708 -0.7310 -0.3972 0.5548
 4.9742 -1.3156 0.8626 -0.6025 -0.7856 0.1409
 -0.2234 3.2931 -4.8508 -0.1109 0.5970 -0.7946
 1.7165 0.5469 -7.8583 -0.6942 0.6584 -0.2907

_exptl_transmission_factor_max     ?
_exptl_transmission_factor_min     ?
_diffrn_reflns_av_R_equivalents    0.0261
_diffrn_reflns_av_unetI/netI       0.0247
_diffrn_reflns_Laue_measured_fraction_full  0.994
_diffrn_reflns_Laue_measured_fraction_max  0.976
_diffrn_reflns_limit_h_max         11
_diffrn_reflns_limit_h_min         -11
_diffrn_reflns_limit_k_max         5
_diffrn_reflns_limit_k_min         -8
_diffrn_reflns_limit_l_max         15
_diffrn_reflns_limit_l_min         -15
_diffrn_reflns_number              4069
_diffrn_reflns_point_group_measured_fraction_full  0.994
_diffrn_reflns_point_group_measured_fraction_max  0.976
_diffrn_reflns_theta_full          67.684
_diffrn_reflns_theta_max           76.495
_diffrn_reflns_theta_min           5.506
_diffrn_ambient_environment        N~2~
_diffrn_ambient_temperature        100(1)
_diffrn_detector                   'Hybrid Pixel Array Detector'
_diffrn_detector_area_resol_mean   10.0000
_diffrn_detector_type              HyPix
_diffrn_measured_fraction_theta_full  0.994
_diffrn_measured_fraction_theta_max  0.976
_diffrn_measurement_details
;
List of Runs (angles in degrees, time in seconds):

  # Type    Start    End  Width  t~exp~   \w     \q     \k     \f   Frames
--------------------------------------------------------------------------
  1  \w     -9.00  16.00   0.50    0.05    --  -48.20  19.00  89.00   50
  2  \w    -26.00  -1.00   0.50    0.05    --   48.20 -19.00 -78.00   50
  3  \w    -26.00  11.00   0.50    0.05    --   48.20 -19.00-180.00   74
  4  \w     37.00 106.00   0.50    0.05    --  107.75 -94.00-150.00  138
  5  \w    101.00 128.00   0.50    0.05    --  107.75 -77.00-120.00   54
  6  \w     75.00 105.00   0.50    0.05    --  107.75 -94.00-180.00   60
  7  \w     35.00  97.00   0.50    0.05    --  107.75 -77.00-120.00  124
  8  \w     37.00  65.00   0.50    0.05    --  107.75 -61.00 -60.00   56
  9  \w     35.00  68.00   0.50    0.05    --  107.75 -61.00-150.00   66
 10  \w     35.00  68.00   0.50    0.05    --  107.75 -94.00-180.00   66
 11  \w    102.00 168.00   0.50    0.05    --  107.75  30.00   0.00  132
 12  \w    102.00 169.00   0.50    0.05    --  107.75  77.00  90.00  134
 13  \w     96.00 149.00   0.50    0.05    --  107.75  19.00  89.00  106
 14  \w     69.00  96.00   0.50    0.05    --   48.20  19.00  89.00   54
 15  \w     37.00  69.00   0.50    0.05    --  107.75 -61.00  60.00   64
 16  \w    105.00 174.00   0.50    0.05    --  107.75  77.00-180.00  138
 17  \w    -41.00  20.00   0.50    0.05    --  -48.20  37.00-120.00  122
 18  \w   -123.00 -35.00   0.50    0.05    --  -48.20 -19.00 -78.00  176
 19  \w   -149.00-113.00   0.50    0.05    --  -86.25 -19.00 -78.00   72
;
_diffrn_measurement_device         'four-circle diffractometer'
_diffrn_measurement_device_type    'XtaLAB Synergy, Dualflex, HyPix'
_diffrn_measurement_method         '\w scans'
_diffrn_orient_matrix_type        
 'CrysAlisPro convention (1999,Acta A55,543-557)'
_diffrn_orient_matrix_UB_11        -0.1177510000
_diffrn_orient_matrix_UB_12        0.0563658000
_diffrn_orient_matrix_UB_13        0.0665462000
_diffrn_orient_matrix_UB_21        -0.1369530000
_diffrn_orient_matrix_UB_22        0.0050218000
_diffrn_orient_matrix_UB_23        -0.1133511000
_diffrn_orient_matrix_UB_31        -0.0329965000
_diffrn_orient_matrix_UB_32        -0.2224432000
_diffrn_orient_matrix_UB_33        0.0143091000
_diffrn_radiation_monochromator    mirror
_diffrn_radiation_probe            x-ray
_diffrn_radiation_type             'Cu K\a'
_diffrn_radiation_wavelength       1.54184
_diffrn_source                     'micro-focus sealed X-ray tube'
_diffrn_source_type                'PhotonJet (Cu) X-ray Source'
_reflns_Friedel_coverage           0.000
_reflns_Friedel_fraction_full      .
_reflns_Friedel_fraction_max       .
_reflns_number_gt                  1360
_reflns_number_total               1409
_reflns_odcompleteness_completeness  98.84
_reflns_odcompleteness_iscentric   1
_reflns_odcompleteness_theta       75.12
_reflns_special_details
;
 Reflections were merged by SHELXL according to the crystal
 class for the calculation of statistics and refinement.
 
 _reflns_Friedel_fraction is defined as the number of unique
 Friedel pairs measured divided by the number that would be
 possible theoretically, ignoring centric projections and
 systematic absences.
;
_reflns_threshold_expression       'I > 2\s(I)'
_computing_cell_refinement         'CrysAlisPro 1.171.40.67a (Rigaku OD, 2019)'
_computing_data_collection         'CrysAlisPro 1.171.40.67a (Rigaku OD, 2019)'
_computing_data_reduction          'CrysAlisPro 1.171.40.67a (Rigaku OD, 2019)'
_computing_molecular_graphics      'Olex2 1.3 (Dolomanov et al., 2009)'
_computing_publication_material    'Olex2 1.3 (Dolomanov et al., 2009)'
_computing_structure_refinement    'SHELXL 2018/3 (Sheldrick, 2015)'
_computing_structure_solution      'SHELXT  (Sheldrick, 2015)'
_refine_diff_density_max           0.418
_refine_diff_density_min           -0.532
_refine_diff_density_rms           0.088
_refine_ls_extinction_coef         0.0026(3)
_refine_ls_extinction_expression  
 'Fc^*^=kFc[1+0.001xFc^2^\l^3^/sin(2\q)]^-1/4^'
_refine_ls_extinction_method       'SHELXL-2018/3 (Sheldrick 2018)'
_refine_ls_goodness_of_fit_ref     1.122
_refine_ls_hydrogen_treatment      mixed
_refine_ls_matrix_type             full
_refine_ls_number_parameters       96
_refine_ls_number_reflns           1409
_refine_ls_number_restraints       0
_refine_ls_R_factor_all            0.0267
_refine_ls_R_factor_gt             0.0259
_refine_ls_restrained_S_all        1.122
_refine_ls_shift/su_max            0.000
_refine_ls_shift/su_mean           0.000
_refine_ls_structure_factor_coef   Fsqd
_refine_ls_weighting_details      
 'w=1/[\s^2^(Fo^2^)+(0.0403P)^2^+0.5429P] where P=(Fo^2^+2Fc^2^)/3'
_refine_ls_weighting_scheme        calc
_refine_ls_wR_factor_gt            0.0725
_refine_ls_wR_factor_ref           0.0732
_refine_special_details            ?
_olex2_refinement_description
;
1. Fixed Uiso
 At 1.2 times of:
  All C(H) groups
2.a Aromatic/amide H refined with riding coordinates:
 C3(H3), C4(H4), C5(H5), C6(H6)
;
_atom_sites_solution_hydrogens     mixed
_atom_sites_solution_primary       dual
_atom_sites_solution_secondary     ?
loop_
  _atom_site_label
  _atom_site_type_symbol
  _atom_site_fract_x
  _atom_site_fract_y
  _atom_site_fract_z
  _atom_site_U_iso_or_equiv
  _atom_site_adp_type
  _atom_site_occupancy
  _atom_site_site_symmetry_order
  _atom_site_calc_flag
  _atom_site_refinement_flags_posn
  _atom_site_refinement_flags_adp
  _atom_site_refinement_flags_occupancy
  _atom_site_disorder_assembly
  _atom_site_disorder_group
 Se1 Se 0.32631(3) 0.14287(4) 0.20367(2) 0.02128(14) Uani 1 1 d . . . . .
 O1 O 0.6401(2) 0.2047(3) 0.50867(15) 0.0259(4) Uani 1 1 d . . . . .
 N1 N 0.4447(3) 0.0887(3) 0.35419(18) 0.0234(4) Uani 1 1 d . . . . .
 H1 H 0.417(4) -0.009(5) 0.387(3) 0.024(7) Uiso 1 1 d . . . . .
 C1 C 0.4552(3) 0.3737(3) 0.2201(2) 0.0193(5) Uani 1 1 d . . . . .
 C2 C 0.5593(3) 0.3909(4) 0.3308(2) 0.0197(5) Uani 1 1 d . . . . .
 C3 C 0.6577(3) 0.5574(4) 0.3622(2) 0.0227(5) Uani 1 1 d . . . . .
 H3 H 0.725057 0.570514 0.436693 0.027 Uiso 1 1 calc R U . . .
 C4 C 0.6535(3) 0.7026(4) 0.2810(2) 0.0252(5) Uani 1 1 d . . . . .
 H4 H 0.717557 0.815099 0.300833 0.030 Uiso 1 1 calc R U . . .
 C5 C 0.5529(3) 0.6798(4) 0.1690(2) 0.0253(5) Uani 1 1 d . . . . .
 H5 H 0.553656 0.776701 0.114689 0.030 Uiso 1 1 calc R U . . .
 C6 C 0.4527(3) 0.5189(4) 0.1365(2) 0.0216(5) Uani 1 1 d . . . . .
 H6 H 0.385676 0.506548 0.061785 0.026 Uiso 1 1 calc R U . . .
 C7 C 0.5542(3) 0.2234(4) 0.4076(2) 0.0208(5) Uani 1 1 d . . . . .

loop_
  _atom_site_aniso_label
  _atom_site_aniso_U_11
  _atom_site_aniso_U_22
  _atom_site_aniso_U_33
  _atom_site_aniso_U_23
  _atom_site_aniso_U_13
  _atom_site_aniso_U_12
 Se1 0.02309(19) 0.0203(2) 0.01587(19) 0.00180(8) -0.00130(12) -0.00312(9)
 O1 0.0275(9) 0.0265(9) 0.0175(8) 0.0026(7) -0.0028(7) -0.0028(8)
 N1 0.0278(11) 0.0206(10) 0.0163(10) 0.0040(9) -0.0018(8) -0.0054(9)
 C1 0.0180(11) 0.0200(12) 0.0189(11) -0.0017(9) 0.0041(9) -0.0001(9)
 C2 0.0192(11) 0.0207(11) 0.0186(11) -0.0002(9) 0.0046(9) 0.0026(9)
 C3 0.0223(11) 0.0223(12) 0.0224(12) -0.0014(10) 0.0048(9) -0.0006(10)
 C4 0.0242(12) 0.0205(13) 0.0306(14) -0.0005(11) 0.0075(10) -0.0023(10)
 C5 0.0274(13) 0.0224(12) 0.0279(13) 0.0070(10) 0.0108(11) 0.0021(10)
 C6 0.0201(11) 0.0243(12) 0.0201(11) 0.0040(10) 0.0054(9) 0.0025(9)
 C7 0.0201(11) 0.0208(12) 0.0188(11) -0.0011(10) 0.0017(9) 0.0014(9)

_geom_special_details
;
 All esds (except the esd in the dihedral angle between two l.s. planes)
 are estimated using the full covariance matrix.  The cell esds are taken
 into account individually in the estimation of esds in distances, angles
 and torsion angles; correlations between esds in cell parameters are only
 used when they are defined by crystal symmetry.  An approximate (isotropic)
 treatment of cell esds is used for estimating esds involving l.s. planes.
;
loop_
  _geom_bond_atom_site_label_1
  _geom_bond_atom_site_label_2
  _geom_bond_distance
  _geom_bond_site_symmetry_2
  _geom_bond_publ_flag
 Se1 N1 1.858(2) . ?
 Se1 C1 1.895(2) . ?
 O1 C7 1.246(3) . ?
 N1 H1 0.84(3) . ?
 N1 C7 1.340(3) . ?
 C1 C2 1.393(3) . ?
 C1 C6 1.406(3) . ?
 C2 C3 1.395(4) . ?
 C2 C7 1.473(4) . ?
 C3 H3 0.9300 . ?
 C3 C4 1.382(4) . ?
 C4 H4 0.9300 . ?
 C4 C5 1.398(4) . ?
 C5 H5 0.9300 . ?
 C5 C6 1.375(4) . ?
 C6 H6 0.9300 . ?

loop_
  _geom_angle_atom_site_label_1
  _geom_angle_atom_site_label_2
  _geom_angle_atom_site_label_3
  _geom_angle
  _geom_angle_site_symmetry_1
  _geom_angle_site_symmetry_3
  _geom_angle_publ_flag
 N1 Se1 C1 85.07(10) . . ?
 Se1 N1 H1 118(2) . . ?
 C7 N1 Se1 117.31(18) . . ?
 C7 N1 H1 124(2) . . ?
 C2 C1 Se1 111.70(18) . . ?
 C2 C1 C6 120.7(2) . . ?
 C6 C1 Se1 127.61(19) . . ?
 C1 C2 C3 120.5(2) . . ?
 C1 C2 C7 114.7(2) . . ?
 C3 C2 C7 124.8(2) . . ?
 C2 C3 H3 120.5 . . ?
 C4 C3 C2 119.1(2) . . ?
 C4 C3 H3 120.5 . . ?
 C3 C4 H4 120.1 . . ?
 C3 C4 C5 119.8(3) . . ?
 C5 C4 H4 120.1 . . ?
 C4 C5 H5 118.9 . . ?
 C6 C5 C4 122.2(2) . . ?
 C6 C5 H5 118.9 . . ?
 C1 C6 H6 121.2 . . ?
 C5 C6 C1 117.7(2) . . ?
 C5 C6 H6 121.2 . . ?
 O1 C7 N1 123.3(2) . . ?
 O1 C7 C2 125.6(2) . . ?
 N1 C7 C2 111.0(2) . . ?

loop_
  _geom_torsion_atom_site_label_1
  _geom_torsion_atom_site_label_2
  _geom_torsion_atom_site_label_3
  _geom_torsion_atom_site_label_4
  _geom_torsion
  _geom_torsion_site_symmetry_1
  _geom_torsion_site_symmetry_2
  _geom_torsion_site_symmetry_3
  _geom_torsion_site_symmetry_4
  _geom_torsion_publ_flag
 Se1 N1 C7 O1 179.44(19) . . . . ?
 Se1 N1 C7 C2 -1.3(3) . . . . ?
 Se1 C1 C2 C3 -176.11(18) . . . . ?
 Se1 C1 C2 C7 3.6(3) . . . . ?
 Se1 C1 C6 C5 177.18(19) . . . . ?
 N1 Se1 C1 C2 -3.39(18) . . . . ?
 N1 Se1 C1 C6 177.5(2) . . . . ?
 C1 Se1 N1 C7 2.7(2) . . . . ?
 C1 C2 C3 C4 -1.7(4) . . . . ?
 C1 C2 C7 O1 177.7(2) . . . . ?
 C1 C2 C7 N1 -1.6(3) . . . . ?
 C2 C1 C6 C5 -1.8(4) . . . . ?
 C2 C3 C4 C5 -0.7(4) . . . . ?
 C3 C2 C7 O1 -2.6(4) . . . . ?
 C3 C2 C7 N1 178.1(2) . . . . ?
 C3 C4 C5 C6 1.9(4) . . . . ?
 C4 C5 C6 C1 -0.6(4) . . . . ?
 C6 C1 C2 C3 3.0(4) . . . . ?
 C6 C1 C2 C7 -177.2(2) . . . . ?
 C7 C2 C3 C4 178.6(2) . . . . ?

_shelx_res_file
;
TITL tf-10_a.res in P2(1)/n
    tf-10.res
    created by SHELXL-2018/3 at 10:28:13 on 07-Apr-2020
REM Old TITL tf-10 in P21/n #14
REM SHELXT solution in P2(1)/n: R1 0.080, Rweak 0.110, Alpha 0.030
REM <I/s> 1.577 for 129 systematic absences, Orientation as input
REM Formula found by SHELXT: C7 N O Br
CELL 1.54184 8.7887 6.7126 12.2004 90 107.285 90
ZERR 4 0.0002 0.0001 0.0002 0 0.002 0
LATT 1
SYMM 0.5-X,0.5+Y,0.5-Z
SFAC C H N O Se
UNIT 28 20 4 4 4

L.S. 4 0 0
PLAN  5
CONF
BOND
list 4
fmap 2 53
MORE -1
ACTA
BOND $H
OMIT 5 4 9
OMIT 6 2 9
REM <olex2.extras>
REM <HklSrc "%.\\tf-10.hkl">
REM </olex2.extras>

WGHT    0.040300    0.542900
EXTI    0.002599
FVAR       6.21781
SE1   5    0.326314    0.142873    0.203670    11.00000    0.02309    0.02026 =
         0.01587    0.00180   -0.00130   -0.00312
O1    4    0.640052    0.204720    0.508675    11.00000    0.02750    0.02653 =
         0.01746    0.00258   -0.00285   -0.00280
N1    3    0.444707    0.088669    0.354189    11.00000    0.02779    0.02059 =
         0.01631    0.00403   -0.00175   -0.00536
H1    2    0.416860   -0.009218    0.386986    11.00000    0.02353
C1    1    0.455215    0.373704    0.220061    11.00000    0.01804    0.01999 =
         0.01895   -0.00175    0.00411   -0.00011
C2    1    0.559288    0.390866    0.330789    11.00000    0.01923    0.02066 =
         0.01858   -0.00024    0.00462    0.00264
C3    1    0.657660    0.557384    0.362189    11.00000    0.02229    0.02228 =
         0.02239   -0.00139    0.00476   -0.00057
AFIX  43
H3    2    0.725057    0.570514    0.436693    11.00000   -1.20000
AFIX   0
C4    1    0.653534    0.702562    0.281005    11.00000    0.02424    0.02051 =
         0.03055   -0.00054    0.00751   -0.00233
AFIX  43
H4    2    0.717557    0.815099    0.300833    11.00000   -1.20000
AFIX   0
C5    1    0.552859    0.679798    0.168994    11.00000    0.02736    0.02243 =
         0.02789    0.00698    0.01083    0.00213
AFIX  43
H5    2    0.553656    0.776701    0.114689    11.00000   -1.20000
AFIX   0
C6    1    0.452705    0.518898    0.136453    11.00000    0.02010    0.02426 =
         0.02010    0.00404    0.00545    0.00248
AFIX  43
H6    2    0.385676    0.506548    0.061785    11.00000   -1.20000
AFIX   0
C7    1    0.554163    0.223361    0.407582    11.00000    0.02006    0.02075 =
         0.01876   -0.00106    0.00166    0.00144
HKLF 4




REM  tf-10_a.res in P2(1)/n
REM wR2 = 0.0732, GooF = S = 1.122, Restrained GooF = 1.122 for all data
REM R1 = 0.0259 for 1360 Fo > 4sig(Fo) and 0.0267 for all 1409 data
REM 96 parameters refined using 0 restraints

END

WGHT      0.0403      0.5430

REM Highest difference peak  0.418,  deepest hole -0.532,  1-sigma level  0.088
Q1    1   0.2425  0.2202  0.2603  11.00000  0.05    0.42
Q2    1   0.6655  0.6206  0.3039  11.00000  0.05    0.39
Q3    1   0.3305  0.3009  0.2028  11.00000  0.05    0.38
Q4    1   0.5318  0.3577  0.2883  11.00000  0.05    0.36
Q5    1   0.5693  0.3406  0.3654  11.00000  0.05    0.35
;
_shelx_res_checksum                36934
_shelx_hkl_file
;
   0   0  -1 28.0093 15.1894  18
   0   0  -2 564069. 11409.6  18
   0   0  -3 47.9082 40.0534  18
   0   0  -4 6496.17 362.272  18
   0   0  -5 130.121 65.9807  18
   0   0  -6 104649. 2739.14  18
   0   0  -7 212.420 104.065  18
   0   0   8 39318.6 1462.41  12
   0   0   8 36453.7 1394.67  13
   0   0  -8 39883.0 1570.99  18
   0   0  -9 30.0635 111.246  18
   0   0   9-24.6653 72.1575  13
   0   0 -10 119580. 3616.27  18
   0   0  10 124268. 3476.80  12
   0   0 -11-34.3197 89.7981  18
   0   0  11 217.591 118.016  12
   0   0  12 64015.2 2120.11  12
   0   0 -13 145.917 100.611  19
   0   0  13-19.0514 86.3392  12
   0   0  14 51054.4 1482.89  12
   0  -1   0 86.2325 20.6633   3
   0  -1   0 85.5553 24.3429  17
   0   1  -1 755.715 56.8153  18
   0  -1  -1 480.793 47.4396  18
   0  -1  -2 7651.91 293.920  18
   0   1  -2 8169.91 300.458  18
   0  -1  -3 63057.7 1540.14  18
   0   1  -3 63536.5 1542.05  18
   0   1  -4 200726. 4353.01  18
   0  -1  -4 194251. 4340.17  18
   0  -1  -5 119751. 2909.17  18
   0   1  -5 118092. 2892.84  18
   0  -1  -6 330527. 7355.37  18
   0   1  -6 337861. 7377.56  18
   0   1  -7 105823. 2872.47  18
   0  -1  -7 100743. 2839.40  18
   0   1   8 102467. 2845.72  13
   0  -1   8 103214. 3012.44   2
   0   1   8 102819. 2995.01   2
   0  -1   8 108762. 2927.77  12
   0  -1  -8 107342. 3050.80  18
   0  -1   8 102330. 2854.30  13
   0   1  -8 101157. 3009.20  18
   0  -1   9 7631.31 648.147   2
   0   1   9 7436.82 642.177   2
   0  -1  -9 6248.77 604.925  18
   0  -1   9 6704.88 572.593  12
   0   1  -9 6989.46 632.135  18
   0  -1 -10 36532.3 1661.13  18
   0  -1  10 39958.3 1709.69   2
   0  -1  10 40418.9 1611.41  12
   0   1  10 40074.1 1594.20  12
   0   1  10 38632.5 1699.44   2
   0   1 -10 39442.7 1734.26  18
   0   1  11 2642.24 362.479  12
   0  -1  11 3007.92 423.783   2
   0   1  11 1946.09 345.513   2
   0   1 -11 2437.87 404.032  18
   0  -1  11 2848.33 374.972  12
   0  -1 -11 1990.80 358.589  18
   0   1  12 3781.09 412.879  12
   0  -1  12 3528.42 403.986  12
   0   1 -13 17627.5 938.812  19
   0  -1  13 15513.9 792.532  12
   0   1  13 17617.1 831.796  12
   0  -1 -13 17249.5 910.791  19
   0  -1  14 24587.3 884.138  12
   0   1  14 26078.3 887.319  12
   0  -2   0 66654.9 1554.26  17
   0  -2   0 68270.3 1464.38   3
   0   2  -1 456026. 9139.42  18
   0  -2   1 455973. 9252.71  17
   0  -2  -1 458182. 9386.41  17
   0  -2  -1 456994. 9137.10  18
   0  -2   2 2231.72 137.928  17
   0  -2   2 2740.24 157.721   2
   0   2  -2 2411.83 148.149  18
   0  -2  -2 2258.20 142.893  18
   0   2  -3 56616.4 1420.51  18
   0  -2  -3 57381.0 1422.18  18
   0  -2  -4 89575.0 2208.46  18
   0   2  -4 90968.6 2212.06  18
   0   2  -5 6822.74 434.987  18
   0  -2  -5 6130.66 409.481  18
   0  -2   6 351.379 119.750   2
   0   2  -6 407.385 125.091  18
   0  -2  -6 607.569 143.896  18
   0   2  -7 30875.6 1249.10  18
   0  -2   7 30188.0 1250.07   9
   0   2   7 28683.5 1206.19   2
   0  -2   7 29270.8 1185.33  12
   0  -2   7 29052.3 1201.98   2
   0  -2  -7 30949.7 1240.03  18
   0  -2   8 6848.99 573.600   2
   0  -2   8 7992.12 595.989  12
   0  -2  -8 6751.02 571.701  18
   0   2   8 6591.44 569.664   2
   0  -2  -8 6195.85 497.335  15
   0   2  -8 6442.85 565.533  18
   0  -2   8 6136.20 509.129   7
   0   2  -9 74498.2 2456.80  18
   0  -2  -9 74851.9 2440.53  18
   0   2   9 73284.5 2440.90   2
   0  -2   9 73469.8 2435.79   2
   0  -2   9 72189.7 2244.43   7
   0  -2   9 73062.1 2341.91  12
   0  -2  10 41225.4 1605.27  12
   0   2  10 37720.7 1649.04   2
   0   2 -10 41444.0 1738.44  18
   0  -2 -10 39725.4 1672.94  18
   0  -2  10 37969.0 1645.71   2
   0   2  10 41797.8 1615.35  12
   0  -2  11 71178.9 2288.26  12
   0   2  11 71973.3 2285.61  12
   0  -2 -12 240.616 117.802  19
   0  -2  12 42.0509 61.5455  12
   0   2 -12 253.615 124.164  19
   0   2  12 103.304 85.5025  12
   0   2 -13 53771.2 1689.76  19
   0  -2  13 50976.8 1591.39  12
   0   2  13 53875.7 1592.49  12
   0  -2 -13 50741.5 1630.44  19
   0  -2  14 328.912 74.3388  12
   0   2  14 158.431 55.0099  12
   0  -3   0 351.200 82.1604  17
   0  -3   1 1837.61 151.084  17
   0  -3  -1 1447.66 82.6067   3
   0  -3   2 10909.5 387.510  17
   0  -3   3 168715. 3489.71   2
   0  -3  -3 162754. 3488.80  18
   0  -3   3 158514. 3443.14  17
   0   3   4 10812.3 485.835   2
   0  -3   4 11221.5 486.679   2
   0  -3  -4 10248.7 463.970  18
   0   3  -4 11408.6 490.000  18
   0  -3   5 124230. 2975.59   2
   0  -3  -5 121573. 2949.58  18
   0   3   5 125986. 2997.07   2
   0   3  -5 120109. 2960.70  18
   0  -3   6 31809.5 1338.57   4
   0  -3   6 30817.0 1259.71   7
   0  -3  -6 30816.9 1128.03  18
   0  -3   6 30704.2 1431.36   6
   0  -3  -6 30565.5 1233.56  15
   0   3   6 30624.8 1147.16   2
   0   3  -6 30220.2 1133.74  18
   0  -3   6 31004.5 1143.43   2
   0  -3   6 31954.7 1300.49   9
   0  -3   7 129056. 3413.18  12
   0  -3   7 130043. 3569.84   9
   0  -3  -7 126031. 3330.59  18
   0  -3   7 132487. 3537.48   7
   0   3   7 120861. 3341.14   2
   0   3  -7 132206. 3397.92  18
   0  -3   7 133416. 3642.99   4
   0  -3   7 140344. 3420.81   2
   0  -3  -7 128102. 3458.15  15
   0  -3   8 47925.4 1875.66   4
   0  -3   8 47050.6 1684.07   2
   0  -3   8 45938.7 1748.84   7
   0  -3  -8 43574.1 1641.44  18
   0  -3  -8 48947.1 1757.11  15
   0  -3   8 48979.1 1718.64  12
   0  -3   9 15455.6 895.959   2
   0  -3   9 19575.3 992.014  12
   0  -3  -9 17042.1 933.631  15
   0  -3  -9 17047.0 951.574  18
   0  -3   9 17005.4 965.368   7
   0  -3  10 412.806 149.257  12
   0   3  10 446.445 147.680  12
   0  -3 -10 478.099 156.609  19
   0   3 -10 435.688 157.503  19
   0  -3  10 416.206 143.503   7
   0   3  11 1311.15 224.466  12
   0  -3  11 1375.62 229.173   7
   0  -3  11 1515.49 251.400  12
   0  -3 -11 1603.05 252.732  19
   0  -3  12 4356.75 370.533  12
   0   3  12 3840.65 344.064  12
   0   3  13 19955.5 697.690  12
   0  -4  -3 43716.3 1503.27  15
   0  -4   3 43773.9 1612.42   4
   0  -4   4 27799.4 1182.86   9
   0  -4   4 26711.1 1176.65   7
   0  -4   4 28786.8 1358.13   6
   0  -4   4 26531.8 1233.75   4
   0  -4  -5 7750.35 593.508  15
   0  -4   5 7429.86 596.858   9
   0  -4   5 7958.21 724.019   6
   0  -4   5 7250.39 626.182   4
   0  -4   6 12987.0 843.260   7
   0  -4   6 13275.3 743.997  12
   0  -4   6 14084.9 1038.32   6
   0  -4   6 13792.4 921.515   4
   0  -4  -6 12933.9 825.496  15
   0  -4   6 13470.5 862.710   9
   0  -4  -7 5350.41 527.677  15
   0  -4   7 5021.54 564.048   4
   0  -4   7 5342.84 546.536   7
   0  -4   7 5047.56 463.859  12
   0  -4   8 73028.0 2417.39   7
   0  -4   8 72118.2 2521.92   4
   0  -4   8 69551.8 2199.45  12
   0  -4  -8 69934.9 2337.50  15
   0  -4   9 51061.3 1891.86   7
   0  -4   9 49358.9 1705.73  12
   0  -4  10 42235.0 1444.65  12
   0  -4  10 42970.7 1608.81   7
   0   4  10 39825.3 1403.70  12
   0   4  11 10030.6 530.484  12
   0  -4  11 10421.1 620.843   7
   0  -4  12 31999.5 1032.71   8
   0  -5   0 31.0030 99.3541  10
   0  -5   0 53.1476 77.7422   4
   0  -5  -1 20346.9 1043.83   4
   0  -5   1 20508.0 1151.70  10
   0  -5   1 19666.7 937.771   7
   0  -5   1 19617.7 1061.75   4
   0  -5  -1 20929.6 1145.23  10
   0  -5   2 44475.7 1562.69   9
   0  -5  -2 47842.4 1860.73  10
   0  -5  -2 43660.9 1650.30   4
   0  -5   2 45888.5 1636.29   7
   0  -5   2 43989.9 1761.40   4
   0  -5   3 2358.76 318.132   9
   0  -5   3 1988.94 307.800   7
   0  -5  -3 1612.46 276.076   4
   0  -5  -3 1768.93 336.125  10
   0  -5   4 96431.3 2940.98   7
   0  -5   4 98251.8 2893.61   9
   0  -5  -4 98717.0 3113.65  10
   0  -5   4 101311. 3132.78   4
   0  -5  -5 6237.94 629.309  10
   0  -5   5 8072.93 671.021   7
   0  -5   5 6281.96 584.457   9
   0  -5   5 7985.21 819.776   6
   0  -5   5 6521.86 666.161   4
   0  -5   6 111932. 3484.65   4
   0  -5   6 113208. 3674.67   6
   0  -5  -6 115052. 3457.25  10
   0  -5  -7 665.785 211.828  10
   0  -5   7 718.832 272.657   4
   0  -5   7 511.220 171.901   7
   0  -5   8 73564.8 2398.63   7
   0  -5   8 68674.0 2446.11   4
   0  -5  -8 69435.8 2343.91  10
   0  -5  -9 89.9064 83.2062  10
   0  -5   9 198.271 121.342   7
   0  -5  10 5026.32 442.308   7
   0  -5  11 9676.48 511.108   7
   0  -6   0 36268.0 1588.87   4
   0  -6   1 11466.3 851.917   4
   0  -6   1 11009.4 686.426   7
   0  -6  -1 11460.6 884.069  10
   0  -6  -1 12113.1 832.730   4
   0  -6  -2 32286.7 1548.13  10
   0  -6   2 30568.0 1308.69   7
   0  -6   2 33083.1 1630.98   6
   0  -6   2 30941.5 1509.98   4
   0  -6  -2 31022.4 1381.38   4
   0  -6  -3 19055.4 990.786   4
   0  -6   3 19062.7 1029.66   7
   0  -6  -3 20991.7 1206.47  10
   0  -6  -4 14154.5 969.565  10
   0  -6   4 14061.7 885.580   7
   0  -6   5 2502.87 418.736   4
   0  -6  -5 2915.97 411.256  10
   0  -6   5 2880.54 389.116   7
   0  -6  -6 717.670 204.728  10
   0  -6   6 608.654 251.821   4
   0  -6   6 699.684 202.701   7
   0  -6   7 12877.1 878.089   4
   0  -6  -7 13350.3 798.486  10
   0  -6   8 9183.73 639.361   7
   0  -6   9 20207.2 892.367   7
   0  -6  10 16343.9 651.983   7
   0  -7   0 31.0878 99.6346   6
   0  -7   0 130.362 102.340   4
   0  -7   1 11546.3 794.168   4
   0  -7   1 12512.3 893.201   6
   0  -7  -1 10615.8 811.797   6
   0  -7  -1 10199.0 700.872   4
   0  -7   2 620.976 306.984   6
   0  -7   2 733.596 209.269   4
   0  -7   3 22696.2 1172.09   4
   0  -7   3 22259.5 1246.01   6
   0  -7   4 111.378 84.1549   7
   0  -7   5 52852.4 1843.96   4
   0  -7   5 50307.2 1649.39   7
   0  -7   6 381.083 118.859   7
   0  -7   6 105.976 159.388   4
   0  -7   7 23441.8 896.925   7
   0  -7   8 123.935 55.8315   7
   0  -8   0 10886.2 640.007   6
   0  -8  -1 20491.3 855.798   6
   0  -8   1 20136.8 806.873   4
   0  -8   1 20537.6 911.351   6
   0  -8   2 12259.8 617.064   4
   0  -8  -2 11636.6 596.979   6
   0  -8   3 9450.76 526.515   4
   0  -8   4 1828.95 223.476   4
  -1   0  15 394.673 84.6186  12
  -1   0  14 59.0833 64.0968  12
   1   0 -14 39.1728 51.2562  19
  -1   0  13 5310.71 465.782  12
  -1   0  12 24.7774 79.4017  12
   1   0 -11 131843. 3954.51  18
  -1   0  11 135588. 3674.85  12
  -1   0  10 25.4339 57.6430  12
   1   0 -10 171.105 109.668  18
   1   0  -9 126070. 3597.64  18
  -1   0   9 122676. 3330.94  12
   1   0  -8 24.9596 65.3162  18
  -1   0   8 98.2582 77.1357  12
   1   0  -7 251546. 5838.56  18
   1   0  -6 31.6272 58.5182  18
   1   0  -5 29894.0 1009.40  18
   1   0  -4 56.2251 45.8840  18
   1   0  -3 9059.26 377.832  18
   1   0  -2 43.5602 28.5069  17
  -1   0   1 317872. 6449.54   1
   1   0  -1 315411. 6410.75  17
   1   0   0 41.7104 26.7454   3
  -1   0  -1 83944.4 1848.62  18
   1   0   1 83824.1 1860.31   3
  -1   0  -2 252.835 60.5811  18
  -1   0  -3 362256. 7579.26  18
  -1   0  -4 22.9883 60.1504  18
  -1   0  -5 139379. 3388.03  18
  -1   0  -6-18.3629 63.5603  18
  -1   0  -7 7075.99 549.683  18
   1   0   7 6498.67 495.047  13
  -1   0  -8 107.424 99.3886  18
   1   0   8 68.2314 78.7404  13
   1   0   9 37588.3 1523.06  13
  -1   0  -9 36089.8 1592.13  18
  -1   0 -10 167.898 116.230  18
   1   0  10-28.5640 74.7398  13
  -1   0 -11 76323.5 2584.05  19
  -1   0 -12 54.5239 87.3686  19
  -1   0 -13 80223.2 2343.71  19
   1   0  14 125.146 54.9083  12
  -1   1  14 18206.2 743.334  12
   1  -1 -14 18071.2 840.760  19
   1   1 -14 16780.1 831.647  19
  -1  -1  13 28837.7 1184.96  12
  -1   1  13 29191.2 1155.70  12
  -1  -1  12 22753.9 1126.50  12
  -1   1  12 24885.9 1126.14  12
  -1  -1  11 32098.1 1491.10   2
   1   1 -11 36219.9 1667.19  18
  -1   1  11 35947.7 1457.23  12
   1  -1 -11 34128.0 1608.65  18
  -1   1  11 30997.8 1476.69   2
   1  -1 -10 15216.6 1024.18  18
  -1  -1  10 15740.0 982.126   2
   1   1 -10 15820.9 1052.98  18
  -1   1  10 17924.1 949.270  12
  -1   1  10 16600.3 1010.38   2
  -1   1   9-27.4638 95.1229   2
  -1  -1   9 109.778 88.0142   2
   1   1  -9 243.385 132.050  18
  -1   1   9 449.710 144.152  12
   1  -1  -9 627.031 187.368  18
  -1   1   8 20853.1 1036.29   2
   1  -1  -8 21519.5 1065.10  18
   1   1  -8 20801.0 1065.73  18
  -1  -1   8 22238.4 1053.88   2
  -1   1   7 47120.1 1615.81   2
   1   1  -7 51040.0 1703.53  18
   1  -1  -7 51979.6 1702.84  18
  -1  -1   7 51282.4 1659.91   2
   1  -1  -6 115840. 2927.95  18
  -1  -1   6 117981. 2925.97   2
  -1   1   6 113134. 2912.24   2
   1   1  -6 115566. 2938.06  18
   1  -1  -5 213994. 4806.63  18
  -1   1   5 207139. 4782.29   2
  -1  -1   5 223973. 4815.37   2
   1   1  -5 218491. 4825.03  18
  -1  -1   4 142898. 3213.32   2
   1  -1  -4 139290. 3212.78  18
  -1   1   4 144521. 3221.56   2
   1   1  -4 141518. 3225.41  18
   1  -1  -3 92949.6 2196.80  17
   1   1  -3 91118.2 2125.44  18
   1  -1  -3 93942.5 2131.43  18
  -1   1   3 92519.2 2126.73   2
  -1  -1   2 784.698 85.5697   2
   1  -1  -2 826.236 103.090  17
   1   1   0 2052.59 83.3756   3
   1  -1   0 1956.85 157.497   3
   1   1   1 1423.72 106.070  14
   1  -1   1 1162.70 96.8819  14
  -1   1  -1 1201.26 104.683  18
  -1   1  -2 68.9842 41.8880  18
  -1  -1  -2 162.780 51.1944  18
  -1  -1  -3 11071.9 471.130  18
  -1   1  -3 11670.6 483.584  18
  -1  -1  -4 25242.7 870.474  18
  -1   1  -4 24030.3 865.511  18
  -1   1  -5 168490. 3989.47  18
  -1  -1  -5 172530. 4003.19  18
  -1   1  -6 93174.2 2553.70  18
  -1  -1  -6 93186.4 2561.40  18
   1   1   7 57901.8 1840.45  13
  -1  -1  -7 60353.3 1957.04  18
  -1   1  -7 61362.1 1976.23  18
   1  -1   7 57405.7 1832.88  13
   1  -1   7 61126.4 1906.93  12
   1  -1   8 79429.3 2362.67  12
  -1  -1  -8 74606.7 2425.89  18
  -1   1  -8 76260.4 2444.20  18
   1  -1   8 74179.9 2290.17  13
   1   1   8 71886.8 2272.27  13
  -1  -1  -9 94618.4 2927.93  18
  -1   1  -9 92126.8 2896.61  18
   1   1   9 91310.3 2961.64   2
   1  -1   9 91164.3 2754.40  13
   1  -1   9 92442.2 2769.09  12
   1   1   9 93094.6 2777.62  13
   1  -1   9 87267.4 2897.95   2
   1  -1  10 14806.0 1009.48   2
  -1  -1 -10 16680.0 1057.14  18
  -1   1 -10 16937.9 1067.22  18
   1   1  10 14898.6 1009.18   2
   1  -1  10 17713.7 988.483  12
   1   1  10 18276.8 1034.80  12
  -1   1 -11 890.102 230.911  19
   1   1  11 398.467 159.608  12
  -1  -1 -11 816.629 230.965  19
   1  -1  11 376.513 150.854  12
  -1   1 -12 1045.76 233.115  19
   1  -1  12 1355.16 230.660  12
  -1  -1 -12 947.783 223.481  19
   1   1  12 1301.51 233.807  12
  -1   1 -13 333.391 111.165  19
  -1  -1 -13 198.607 88.5378  19
   1   1  13 203.545 87.0647  12
   1  -1  13 407.353 112.723  12
   1   1  14 3544.95 248.398  12
  -1  -2  14 356.142 94.7500  12
  -1   2  14 373.724 81.2064  12
  -1  -2  13 92.2624 80.1207  12
   1   2 -13 172.336 93.5182  19
  -1   2  13 123.322 63.8441  12
   1  -2 -13 319.773 114.009  19
  -1  -2  12 14091.7 832.913  12
  -1   2  12 14198.9 776.577  12
  -1   2  11 7606.87 583.826  12
   1   2 -11 6924.65 663.556  18
  -1  -2  11 7380.75 619.656  12
   1  -2 -11 8350.62 717.532  18
  -1  -2  10 43512.4 1730.50   2
  -1   2  10 42618.3 1716.06   2
   1   2 -10 44587.3 1840.08  18
  -1  -2  10 44737.5 1717.73  12
  -1  -2  10 43601.8 1609.58   7
   1  -2 -10 42740.3 1773.43  18
  -1   2  10 47712.3 1672.57  12
  -1   2   9 2131.90 331.421   2
   1  -2  -9 2895.76 397.340  18
  -1  -2   9 2715.32 337.895   7
  -1   2   9 2643.05 334.358  12
  -1  -2   9 3216.78 399.930   2
   1   2  -9 2747.12 394.634  18
  -1  -2   9 2806.29 366.020  12
   1   2  -8 114096. 3170.09  18
  -1  -2   8 107975. 2967.18   7
  -1  -2   8 106857. 3030.50   2
  -1  -2   8 114503. 3045.40  12
   1  -2  -8 115846. 3151.52  18
  -1   2   8 105374. 3021.13   2
   1  -2  -8 104915. 2891.59  15
   1  -2  -7 6448.29 508.517  18
  -1   2   7 6542.26 502.918   2
  -1  -2   7 7502.61 538.016   2
   1   2  -7 6559.97 522.275  18
  -1  -2   7 7061.80 518.389  12
   1   2  -6 95268.8 2521.62  18
   1  -2  -6 91072.3 2478.89  18
  -1   2   6 91137.5 2464.60   2
  -1  -2   6 97565.3 2497.80   2
   1   2  -5 2532.24 252.297  18
  -1  -2   5 2903.47 261.092   2
   1  -2  -5 2432.92 245.341  18
  -1   2   5 2634.77 254.509   2
  -1   2   4 18622.9 678.109   2
  -1  -2   4 18888.0 678.443   2
   1   2  -4 18415.9 681.700  18
   1  -2  -4 19578.1 690.022  18
  -1   2   3 16673.6 556.142   2
   1   2  -3 17089.7 567.583  18
   1  -2  -3 15671.7 545.381  18
   1  -2  -2 130074. 2788.53  18
   1  -2  -2 133225. 2995.39  17
   1   2  -2 129822. 2796.47  18
   1  -2  -1 17998.1 617.793  17
   1   2   0 167639. 3405.88  14
  -1  -2   0 160503. 3420.97   1
  -1   2   0 164945. 3435.77   1
   1  -2   0 172727. 3630.38   3
   1  -2   0 169416. 3601.41  17
   1  -2   0 166694. 3400.42  14
   1  -2   1 4423.65 257.617  17
  -1   2  -2 344949. 6978.02  18
  -1  -2  -2 327675. 6959.44  18
  -1   2  -3 42121.8 1158.58  18
  -1  -2  -3 40537.4 1145.62  18
  -1  -2  -4 120962. 2933.72  18
  -1   2  -4 127595. 2961.05  18
  -1  -2  -5 4412.83 360.923  18
  -1   2  -5 4459.66 363.006  18
  -1  -2  -6 24534.8 1012.91  18
  -1   2  -6 21745.7 974.430  18
   1  -2   7 2380.93 327.855   9
   1  -2   7 2508.17 309.475  12
   1  -2   7 2023.17 271.498  13
  -1  -2  -7 1754.38 263.953  15
  -1  -2  -7 1653.16 266.599  18
   1  -2   7 2305.82 304.757   7
   1   2   7 2099.26 278.547  13
  -1   2  -7 2373.20 320.295  18
  -1   2  -8 51717.4 1868.86  18
   1  -2   8 51031.7 1760.74  12
  -1  -2  -8 49773.5 1829.38  18
   1  -2   8 48554.6 1722.96   7
   1   2   8 51451.0 1760.50  13
  -1  -2  -8 48025.2 1705.14  15
   1  -2   8 48835.2 1741.47  13
   1  -2   8 49697.5 1869.42   2
  -1  -2  -9 6186.70 527.913  15
   1  -2   9 7785.20 674.988   2
  -1   2  -9 8530.20 701.209  18
   1  -2   9 8296.77 632.380  13
  -1  -2  -9 7269.45 638.300  18
   1  -2   9 7800.44 610.212  12
   1   2   9 7068.54 654.223   2
   1   2   9 7159.78 601.214  13
  -1   2 -10 92128.7 2844.30  19
   1   2  10 85920.1 2838.29   2
  -1   2 -10 86026.4 2829.79  18
   1  -2  10 80624.5 2772.76   2
   1  -2  10 91447.9 2667.11  12
  -1  -2 -10 93313.1 2872.18  18
  -1  -2 -10 94178.0 2851.57  19
  -1  -2 -11 2558.24 360.877  19
   1   2  11 2518.78 350.533  12
   1  -2  11 3271.56 368.184  12
  -1   2 -11 2435.61 356.631  19
   1   2  12 99383.3 2683.65  12
  -1  -2 -12 97597.5 2709.04  19
   1  -2  12 95510.4 2580.82  12
  -1   2 -12 94765.3 2720.11  19
   1  -2  13 2523.63 228.949  12
   1   2  13 2776.74 260.911  12
  -1  -3  14 43865.4 1179.06   8
  -1  -3  13 11378.0 571.792  12
  -1   3  13 10397.4 466.714  12
  -1   3  12 29152.4 890.852  12
  -1  -3  12 31561.1 1070.73  12
  -1  -3  11 2376.53 322.316   7
  -1  -3  11 3143.17 378.557  12
  -1   3  11 3168.60 336.929  12
  -1  -3  10 11073.6 756.310   7
  -1   3  10 10810.8 679.054  12
  -1  -3  10 11477.2 783.417  12
   1  -3  -9 449.657 150.122  18
  -1  -3   9 769.206 202.601  12
  -1  -3   9 604.604 182.270   7
  -1   3   9 421.783 138.337  12
   1  -3  -8 29656.3 1276.21  18
   1   3  -8 32548.8 1347.29  18
  -1  -3   8 31724.2 1360.72   7
  -1  -3   8 33932.0 1383.86  12
  -1  -3   8 32705.4 1508.81   4
   1   3  -7 10952.8 678.442  18
  -1  -3   7 11935.7 810.308   4
   1  -3  -7 11475.4 712.923  15
  -1  -3   7 11626.6 738.117   7
   1  -3  -7 10529.4 652.598  18
  -1  -3   7 12302.0 737.806  12
   1   3  -6 63879.8 1875.21  18
   1  -3  -6 62632.7 1842.81  18
  -1  -3   6 62275.5 1977.28   7
  -1  -3   6 66507.8 2123.93   4
  -1  -3   6 63208.3 1962.68  12
   1  -3  -6 62476.7 1956.12  15
   1  -3  -5 33340.6 1082.43  18
   1   3  -5 33075.2 1095.57  18
   1   3  -4 138983. 3057.56  18
   1  -3  -4 129203. 3021.48  18
   1  -3  -3 110176. 2477.70  18
   1  -3  -3 124187. 2952.15  17
   1  -3  -2 83125.1 2190.46  17
   1  -3  -1 38096.0 1143.98  17
   1  -3  -1 36083.7 1047.74   3
   1  -3   0 55838.0 1410.96   3
   1  -3   0 52249.1 1445.79  17
   1  -3   1 99799.8 2358.93  17
   1  -3   2 75386.5 1873.84  17
   1  -3   3 202.111 66.2247  17
  -1  -3  -4 100856. 2470.41  18
   1  -3   4 102364. 2458.74  17
  -1   3  -4 100517. 2483.04  18
  -1  -3  -5 53910.4 1609.89  18
   1  -3   5 56497.9 1856.92   9
   1  -3   5 55422.8 1827.65   7
  -1  -3  -5 56261.5 1797.34  15
  -1   3  -5 56002.3 1648.34  18
   1  -3   5 56348.7 2007.68   6
  -1  -3  -5 50156.0 1568.16  19
  -1  -3  -6 91341.0 2528.16  19
  -1  -3  -6 93016.8 2699.69  15
  -1   3  -6 96300.2 2599.13  18
   1  -3   6 96893.1 2611.09   2
   1  -3   6 93750.0 2803.27   4
  -1  -3  -6 94610.4 2572.43  18
   1   3   6 88163.3 2581.29   2
   1  -3   6 98237.6 2833.49   9
   1  -3   6 97352.3 2559.58  12
   1  -3   6 95840.1 3008.42   6
   1  -3   6 91452.5 2755.42   7
   1  -3   7 108992. 2954.96  13
   1   3   7 103780. 3053.30   2
  -1  -3  -7 108627. 3011.05  19
   1  -3   7 117951. 3306.66   9
   1  -3   7 112194. 3200.56   7
   1  -3   7 113601. 3016.47  12
  -1   3  -7 119254. 3100.45  19
   1  -3   7 108975. 3230.67   4
  -1  -3  -7 113157. 3175.99  15
   1  -3   7 111622. 3076.02   2
  -1  -3  -7 113710. 3063.94  18
  -1   3  -7 118656. 3130.23  18
   1  -3   8 45443.4 1719.92   2
  -1  -3  -8 46238.7 1760.67  15
   1  -3   8 47896.7 1667.12  12
  -1  -3  -8 48121.9 1704.72  19
  -1  -3  -8 45363.8 1695.71  18
   1  -3   8 48678.4 1818.87   7
  -1   3  -8 48737.1 1738.97  19
   1  -3   8 50106.5 1911.48   9
  -1  -3  -9 6649.54 558.689  19
  -1   3  -9 5992.29 542.110  19
   1  -3   9 6531.61 534.613  12
   1  -3   9 7188.94 599.572   7
  -1  -3  -9 6347.68 564.600  15
   1  -3  10 26480.6 1175.60   7
  -1  -3 -10 27304.1 1194.93  19
  -1   3 -10 28166.0 1233.47  19
   1  -3  10 29921.2 1195.16  12
   1  -3  11 872.008 176.193  12
  -1  -3 -11 550.960 130.386  19
   1   3  12 2341.33 255.948  12
   1   3  13 816.522 107.440  12
  -1  -4  13 8685.54 388.305   8
  -1  -4  12 12865.1 643.220   8
  -1  -4  11 32523.8 1220.69  12
  -1  -4  11 33278.7 1298.35   7
  -1  -4  10 8319.86 649.841   7
  -1  -4  10 8202.95 602.630  12
  -1  -4   9 139584. 3737.78  12
  -1  -4   9 141664. 3873.40   7
  -1  -4   8 3452.17 440.630   7
  -1  -4   8 3080.13 462.770   4
  -1  -4   8 3383.19 404.518  12
  -1  -4   7 110826. 3156.31  12
  -1  -4   7 114603. 3303.32   7
  -1  -4   7 117815. 3466.45   4
  -1  -4   6 1169.06 243.815   7
  -1  -4   6 1305.62 234.547  12
  -1  -4   6 994.367 247.265   4
  -1  -4   5 22161.4 1054.91   9
  -1  -4   5 21641.6 992.694  12
  -1  -4   5 23457.9 1233.73   6
  -1  -4   5 22961.5 1154.30   4
  -1  -4   4 15977.7 828.554   9
  -1  -4   4 16584.1 859.712   7
  -1  -4   4 16219.5 956.607   6
  -1  -4   3 34245.2 1364.85   4
   1  -4  -2 6478.09 485.906  17
   1  -4  -1 107316. 2772.94  17
   1  -4   0 7419.11 459.513  17
   1  -4   1 172620. 3941.98  17
   1  -4   2 60002.3 1966.43   4
   1  -4   2 54330.4 1517.86  17
  -1  -4  -3 87371.4 2566.44  15
   1  -4   3 95314.5 2675.85   9
   1  -4   3 92170.2 2676.10   7
   1  -4   3 93967.7 2896.74   6
   1  -4   3 92393.5 2766.97   4
   1  -4   4 13450.3 924.737   6
   1  -4   4 12707.7 804.453   9
   1  -4   4 13460.2 861.899   4
   1  -4   5 60075.5 2138.19   4
   1  -4   5 59623.8 2258.68   6
  -1  -4  -5 54694.1 1956.04  15
   1  -4   5 58550.9 2050.55   7
   1  -4   6 3812.61 475.725   4
  -1  -4  -6 4008.44 465.932  15
   1  -4   6 4892.45 657.780   6
   1  -4   6 4631.37 508.506   7
   1  -4   7 16417.7 1038.20   4
   1  -4   7 16169.2 1017.09   9
  -1  -4  -7 15878.5 966.165  15
   1  -4   7 17064.9 1018.65   7
  -1  -4  -8 17281.5 1002.64  15
   1  -4   8 15107.0 980.850   4
   1  -4   8 17095.3 1013.54   7
   1  -4   9 7648.00 633.487   7
   1  -4  10 2731.88 333.914   7
   1   4  10 2777.12 319.111  12
   1   4  11 51955.4 1499.94  12
   1  -4  11 49229.8 1497.93   7
  -1  -5  11 9526.70 557.442   7
   1  -5 -10 5967.34 522.023  10
  -1  -5  10 7185.90 552.146   7
  -1  -5   9 1704.42 248.395   8
  -1  -5   9 1955.33 316.349   7
   1  -5  -9 1591.13 304.744  10
  -1  -5   8 1853.93 320.942   7
  -1  -5   8 1862.06 273.466   8
  -1  -5   8 1853.56 361.585   4
  -1  -5   7 26650.9 1141.25   8
  -1  -5   7 26826.3 1428.94   4
  -1  -5   6 3459.51 365.193   8
  -1  -5   6 3770.34 514.798   4
  -1  -5   6 4384.71 491.005   7
  -1  -5   5 110423. 3339.49   4
   1  -5  -5 103284. 3070.68   4
  -1  -5   5 109218. 3186.45   7
   1  -5  -5 108311. 3419.56  10
  -1  -5   5 110138. 3430.68   6
   1  -5  -4 54.0675 86.6666   4
  -1  -5   4 233.970 112.826   7
   1  -5  -4 106.586 123.001  10
  -1  -5   4 270.023 245.869   6
   1  -5  -3 198348. 5093.41   4
  -1  -5   3 202351. 5239.40   6
  -1  -5   3 199729. 5123.32   4
  -1  -5   3 198911. 4929.07   7
   1  -5  -3 199737. 5301.99  10
   1  -5  -2 12884.8 840.933   4
  -1  -5   2 11354.1 699.108   7
  -1  -5   2 10582.9 765.254   4
   1  -5  -2 10709.6 841.565  10
  -1  -5   2 12142.6 847.447   6
  -1  -5   1 100077. 2906.48   4
  -1  -5   1 96753.1 2674.92   7
   1  -5  -1 103914. 3055.61   4
  -1  -5   0 1420.75 279.595  10
   1  -5   0 1509.38 296.202   4
  -1  -5   0 1264.95 243.480   4
   1  -5   0 1475.43 230.702   7
  -1  -5  -1 7043.27 615.289  10
  -1  -5  -1 6401.58 529.311   4
   1  -5   1 6950.80 546.014   9
  -1  -5  -1 7009.16 534.395  15
   1  -5   1 6243.18 645.875  10
   1  -5   1 7637.41 581.687   7
  -1  -5  -2 5707.11 547.023  10
   1  -5   2 5020.29 489.888   9
   1  -5   2 5044.58 555.431   4
  -1  -5  -2 5211.11 477.243  15
   1  -5   2 5563.62 517.073   7
   1  -5   3 26785.9 1445.74   6
  -1  -5  -3 24511.8 1192.09  15
   1  -5   3 27511.8 1385.27   4
  -1  -5  -3 27579.0 1299.94  10
   1  -5   3 28832.5 1291.97   9
   1  -5   3 25775.4 1256.21   7
   1  -5   4 10932.2 787.272   9
   1  -5   4 10667.6 908.663   6
  -1  -5  -4 10545.0 758.075  15
  -1  -5  -4 11808.3 812.206  10
   1  -5   4 10673.4 849.624   4
   1  -5   4 11112.3 804.345   7
   1  -5   5 74142.1 2790.22   6
   1  -5   5 79142.7 2582.60   9
   1  -5   5 75676.3 2681.44   4
  -1  -5  -5 79346.5 2537.51  10
   1  -5   6 15676.7 1198.77   6
   1  -5   6 15810.8 999.584   9
  -1  -5  -6 15039.5 917.010  10
   1  -5   6 15190.3 1033.81   4
   1  -5   6 15942.2 1002.21   7
  -1  -5  -6 14938.8 947.738  15
  -1  -5  -7 70774.6 2371.13  15
   1  -5   7 74438.9 2441.80   7
   1  -5   7 69492.8 2452.35   4
   1  -5   8 3955.44 473.571   4
   1  -5   8 3886.68 452.301   7
   1  -5   9 33000.6 1335.62   7
   1  -5  10 114.900 74.4231   7
  -1  -6  10 15438.7 682.280   7
  -1  -6   9 11466.8 656.173   7
   1  -6  -9 8982.57 565.136  10
   1  -6  -8 28766.4 1248.91  10
   1  -6  -7 3748.57 462.219  10
  -1  -6   7 4441.89 551.690   4
  -1  -6   7 3880.76 438.548   7
   1  -6  -6 24336.4 1298.77  10
  -1  -6   6 24076.3 1198.18   7
  -1  -6   6 26075.8 1346.71   4
   1  -6  -5 2669.47 420.828  10
  -1  -6   5 3026.47 651.189   6
  -1  -6   5 2180.37 339.261   7
   1  -6  -5 2262.44 308.856   4
   1  -6  -4 35.8950 124.264  10
   1  -6  -4 129.733 112.605   4
  -1  -6   4 429.750 193.423   4
  -1  -6   4 52.2846 90.5151   7
  -1  -6   4 528.456 357.019   6
   1  -6  -3 5525.63 554.266   4
  -1  -6   3 6207.22 536.015   7
  -1  -6   3 5093.20 630.622   6
  -1  -6   3 5080.89 564.692   4
   1  -6  -3 5962.84 649.877  10
   1  -6  -2 9230.87 822.618  10
  -1  -6   2 9496.15 765.527   4
  -1  -6   2 8517.13 616.295   7
   1  -6  -2 8677.16 725.567   4
  -1  -6   2 9678.29 807.926   6
  -1  -6   1 6323.62 639.069   6
   1  -6  -1 6849.39 656.916   4
  -1  -6   1 5833.39 578.595   4
   1  -6   0 103436. 3255.33   4
  -1  -6   0 105729. 3083.65   4
   1  -6   1 78381.0 2634.37   4
   1  -6   1 74043.8 2264.01   7
  -1  -6  -1 71801.2 2300.76   4
   1  -6   1 69422.5 2171.92   9
  -1  -6  -2 63860.6 2274.88  10
   1  -6   2 64076.0 2494.67   6
   1  -6   2 64432.2 2138.07   7
   1  -6   2 64398.3 2092.23   9
   1  -6   3 64847.9 2215.46   7
   1  -6   3 62178.9 2478.64   6
   1  -6   3 66253.7 2167.23   9
  -1  -6  -3 67460.0 2272.67  10
   1  -6   3 64867.3 2408.03   4
  -1  -6  -4 31998.4 1407.33  10
   1  -6   4 30911.0 1376.05   9
   1  -6   4 32789.5 1670.55   6
   1  -6   4 33142.5 1454.26   7
   1  -6   4 31555.5 1550.99   4
  -1  -6  -5 6376.63 552.126  10
   1  -6   5 7539.62 688.005   4
   1  -6   5 7654.16 625.617   9
   1  -6   5 7496.30 877.844   6
   1  -6   5 7377.04 638.735   7
   1  -6   6 331.946 176.694   4
   1  -6   6 369.146 158.232   7
   1  -6   7 1049.87 251.557   4
   1  -6   8 307.761 118.189   7
   1  -6   9 9639.99 534.084   7
  -1  -7   8 789.388 128.865   7
   1  -7  -7 342.541 100.857  10
  -1  -7   7 469.075 120.770   7
   1  -7  -6 36944.2 1353.77  10
  -1  -7   6 35114.7 1256.28   7
  -1  -7   5 3876.77 373.730   7
  -1  -7   5 4651.37 494.223   4
   1  -7  -5 4547.96 459.534  10
  -1  -7   4 79993.9 2562.00   6
  -1  -7   4 76716.7 2479.93   4
   1  -7  -4 82151.0 2559.73  10
  -1  -7   3 706.506 216.920   4
  -1  -7   3 472.795 388.708   6
   1  -7  -3 689.471 169.024   4
  -1  -7   2 67433.1 2304.07   6
  -1  -7   2 69040.8 2251.68   4
   1  -7  -2 68528.1 2204.57   4
  -1  -7   1 13369.5 818.703   4
  -1  -7   1 14360.6 926.506   6
   1  -7  -1 13981.4 875.188   4
  -1  -7   0 2137.62 352.729   6
  -1  -7   0 1896.53 285.165   4
   1  -7   0 2092.16 343.364   4
  -1  -7  -1 11116.3 767.633   6
   1  -7   1 11525.6 817.133   4
  -1  -7  -2 842.684 197.069   6
   1  -7   2 1274.99 271.439   4
   1  -7   3 1225.88 206.953   7
   1  -7   3 991.816 443.733   6
   1  -7   4 23000.4 1253.97   6
   1  -7   4 23292.9 994.040   7
   1  -7   4 23118.8 1148.54   4
   1  -7   5 3162.62 391.998   4
   1  -7   5 2551.89 298.383   7
   1  -7   6 43149.5 1376.09   7
   1  -7   6 41802.5 1468.81   4
   1  -7   7 1116.06 163.439   7
   1  -8  -4 384.524 112.590   6
   1  -8  -3 708.561 161.055   6
   1  -8  -2 458.639 167.058   6
   1  -8  -1 11808.7 672.567   6
   1  -8   0 24221.3 931.756   4
   1  -8   0 26425.7 1061.43   6
   1  -8   1 28539.6 1049.70   4
   1  -8   1 30078.1 1156.51   6
   1  -8   2 34191.6 1165.03   4
   1  -8   3 12411.3 607.381   4
  -2   0  15 35.0900 30.3722  12
  -2   0  14 8569.92 520.656  12
  -2   0  13 20.5328 60.0666  12
  -2   0  12 27603.5 1229.13  12
   2   0 -11 186.660 129.230  18
  -2   0  11 25.0883 108.873  12
   2   0 -10 123192. 3660.47  18
  -2   0  10 119103. 3301.73  12
   2   0  -9 211.747 125.180  18
  -2   0   9 127.605 78.7529  12
   2   0  -8 298318. 6859.25  18
  -2   0   8 286552. 6543.15  12
   2   0  -7 103.084 100.941  18
   2   0  -6 177383. 4216.92  18
   2   0  -5 67.2528 63.4597  18
   2   0  -4 29214.5 889.257  17
   2   0  -3 605.617 89.9123  17
   2   0  -2 121012. 2657.07  17
  -2   0   1 35.7338 48.5878   1
   2   0   0 2088.65 188.343   3
   2   0   1 77.5318 54.0714   3
  -2   0  -2 367448. 7704.21  18
  -2   0  -3 79.0576 60.9402  18
  -2   0  -4 676551. 14066.4  18
  -2   0  -5 34.6277 71.6314  18
  -2   0  -6 179433. 4415.66  18
  -2   0  -7 50.8619 88.0255  18
   2   0   7 22.7814 51.6240  13
  -2   0  -8 29009.4 1379.06  18
   2   0   8 29163.3 1297.78  13
   2   0   9 451.773 156.789  13
  -2   0  -9 468.676 173.485  19
  -2   0  -9 562.701 188.810  18
   2   0   9 56.1870 82.3123  12
  -2   0 -10 21162.0 1205.13  18
  -2   0 -10 20832.7 1184.10  19
   2   0  10 21639.7 1152.73  13
   2   0  10 20372.5 1092.22  12
   2   0  11 23.8933 54.1430  12
  -2   0 -12 41577.5 1561.84  19
   2   0  12 43996.6 1480.49  12
   2   0  13 134.875 65.8138  12
  -2  -1  15 15203.4 556.032   8
  -2  -1  15 17305.2 610.956  12
  -2   1  14 25489.0 924.742  12
  -2  -1  14 24593.3 979.756  12
  -2   1  13 14394.9 762.745  12
  -2  -1  13 15825.8 846.530  12
  -2   1  12 91136.9 2655.95  12
  -2  -1  12 94308.0 2765.79  12
   2  -1 -11 4391.53 556.651  18
  -2  -1  11 4567.59 480.579  12
  -2   1  11 5283.01 487.543  12
   2   1 -11 3906.66 529.836  18
   2   1 -10 28674.3 1448.33  18
  -2  -1  10 26524.3 1227.64  12
  -2   1  10 27363.9 1192.26  12
   2  -1 -10 27233.1 1402.50  18
  -2  -1   9 1070.24 235.125   2
  -2   1   9 1044.89 225.503   2
   2   1  -9 1410.41 290.682  18
  -2  -1   9 1483.05 258.382  12
   2  -1  -9 1670.09 313.452  18
   2  -1  -8 19494.1 1015.42  18
  -2  -1   8 20496.8 982.265   2
  -2   1   8 18462.3 951.754   2
  -2  -1   8 21893.7 969.913  12
  -2   1   8 18772.3 862.498  12
   2   1  -8 21674.2 1083.22  18
   2  -1  -7 4838.42 436.907  18
  -2  -1   7 4895.78 412.674   2
   2   1  -7 5557.78 471.165  18
  -2   1   7 4665.32 407.648   2
   2   1  -6 30498.6 1158.85  18
  -2   1   6 29416.1 1086.49   2
  -2  -1   6 30955.0 1102.09   2
   2  -1  -5 3580.49 306.590  18
  -2  -1   5 3670.96 293.577   2
   2  -1  -5 3874.71 339.161  17
  -2   1   5 3575.84 291.514   2
   2   1  -5 3589.11 311.997  18
   2   1  -4 158197. 3523.62  18
   2  -1  -4 155985. 3498.11  18
   2   1  -3 247900. 5138.21  17
   2  -1  -3 262516. 5404.38  17
   2   1  -2 967859. 19544.6  17
   2  -1  -2 999999. 19759.4  17
  -2   1   1 475324. 9830.03   1
  -2  -1   1 475914. 9820.72   1
   2  -1  -1 483367. 9853.25  17
   2   1   0 199949. 4222.75   3
   2   1   1 60208.6 1524.37  14
   2  -1   1 62199.6 1524.36  14
   2   1   2 52625.5 1403.98  14
  -2  -1  -2 56335.5 1449.55  18
  -2   1  -2 54126.7 1436.44  18
   2  -1   2 54409.9 1414.52  14
  -2  -1  -3 27922.5 949.821  18
  -2   1  -3 28943.5 959.111  18
  -2   1  -4 39207.6 1274.59  18
  -2  -1  -4 39025.0 1262.30  18
  -2   1  -5 54409.8 1696.12  18
  -2  -1  -5 54112.9 1694.22  18
  -2  -1  -6 31833.6 1260.74  18
  -2   1  -6 30505.7 1250.22  18
  -2  -1  -7 59988.9 2007.74  18
   2   1   7 55732.4 1886.59  13
   2  -1   7 62063.9 1938.29  12
  -2   1  -7 58154.0 1998.73  18
   2   1   8 95107.4 2844.84  13
   2  -1   8 95996.8 2834.44  12
   2  -1   8 95705.1 2851.47  13
  -2  -1  -8 98635.0 3003.22  18
  -2   1  -8 102122. 3052.69  18
  -2  -1  -9 43584.8 1825.60  19
  -2   1  -9 46537.4 1870.83  19
   2  -1   9 48054.4 1812.58  13
  -2  -1  -9 45766.7 1861.59  18
  -2   1  -9 47600.4 1909.46  18
   2  -1   9 46675.1 1732.64  12
   2   1   9 46223.2 1786.10  13
  -2   1 -10 24183.5 1266.76  19
  -2   1 -10 23757.1 1268.10  18
  -2  -1 -10 24484.9 1273.36  19
   2  -1  10 22548.6 1177.18  13
   2   1  10 22621.9 1190.49  13
  -2  -1 -10 23666.0 1268.49  18
   2  -1  10 24056.4 1143.53  12
  -2   1 -11 37425.0 1550.67  19
  -2  -1 -11 36443.2 1533.45  19
   2  -1  11 36114.4 1400.26  12
  -2   1 -12 28489.1 1194.86  19
  -2  -1 -12 28821.2 1190.72  19
   2  -1  12 29714.6 1088.14  12
   2  -1  13 3732.82 257.377  12
  -2   2  14 1291.91 147.518  12
  -2   2  13 130.121 68.2460  12
  -2   2  12 3321.67 345.672  12
   2   2 -11 27861.6 1456.59  18
  -2   2  11 31772.3 1236.43  12
   2  -2 -11 27385.0 1396.05  18
   2   2 -10 817.921 231.836  18
  -2   2  10 502.720 142.661  12
   2  -2 -10 868.106 230.554  18
  -2  -2  10 219.128 110.687   7
   2  -2  -9 199834. 5046.88  18
   2   2  -9 201947. 5121.90  18
  -2  -2   9 195174. 4848.31   7
  -2   2   9 191543. 4671.38  12
   2   2  -8 29641.5 1319.49  18
  -2  -2   8 29332.1 1202.95   7
   2  -2  -8 29865.2 1294.47  18
  -2   2   8 25978.6 1049.67  12
   2  -2  -7 175564. 4295.97  18
   2   2  -7 173200. 4331.62  18
   2   2  -6 42982.3 1430.75  18
   2  -2  -6 40766.5 1386.41  18
   2  -2  -5 73432.7 2177.32  17
   2   2  -5 75541.7 2034.99  18
   2  -2  -5 74741.8 2012.49  18
   2  -2  -4 1104.70 188.300  17
   2   2  -4 956.048 148.111  18
   2  -2  -3 14201.9 647.682  17
   2   2  -1 22387.8 501.397   3
   2  -2   0 12509.3 551.777  17
  -2  -2   0 13084.7 484.908   1
  -2   2   0 12835.0 490.767   1
   2  -2   0 12715.2 594.320   3
   2   2   1 271594. 5824.51  14
   2  -2   1 284619. 6079.11   3
   2  -2   1 279311. 5825.07  14
   2   2   2 9277.06 422.987  14
  -2   2  -3 238995. 5110.91  18
  -2  -2  -3 222655. 5072.96  18
  -2  -2  -4 15357.5 706.827  18
  -2  -2  -4 15349.8 699.704  19
  -2   2  -4 16305.9 731.420  18
  -2   2  -4 15673.4 711.063  19
  -2  -2  -5 223016. 5136.76  18
  -2  -2  -5 215749. 5093.86  19
  -2   2  -5 223746. 5137.36  18
  -2   2  -5 217294. 5095.33  19
   2   2   6 2820.67 321.519  13
  -2  -2  -6 3930.31 394.339  19
   2  -2   6 2745.89 318.636  13
  -2   2  -6 2635.69 335.747  18
   2  -2   6 2512.41 336.212   9
  -2   2  -6 2711.25 334.442  19
  -2  -2  -6 3842.89 394.984  18
  -2  -2  -7 36144.7 1457.15  18
  -2   2  -7 37482.5 1482.54  18
   2  -2   7 30729.6 1316.31  13
  -2   2  -7 35580.7 1438.82  19
   2   2   7 34909.2 1372.93  13
   2  -2   7 34158.7 1435.82   9
  -2  -2  -7 35515.0 1402.24  15
   2  -2   7 34197.0 1325.64  12
   2  -2   7 31561.7 1350.05   7
  -2  -2  -7 35910.5 1443.59  19
  -2   2  -8 25910.8 1261.52  18
  -2  -2  -8 23352.9 1197.99  18
  -2  -2  -8 24117.7 1152.96  15
   2  -2   8 25173.8 1224.92   9
   2  -2   8 23239.5 1132.23  13
   2   2   8 24796.3 1172.34  13
  -2   2  -8 25366.2 1234.91  19
   2  -2   8 26178.1 1142.47  12
   2  -2   8 23643.9 1116.06   7
  -2  -2  -8 24967.1 1219.56  19
   2   2   9 269.359 152.633   2
  -2   2  -9 185.466 121.373  18
  -2  -2  -9 239.275 121.292  15
  -2   2  -9 88.0339 115.229  19
  -2  -2  -9 151.459 112.148  18
   2  -2   9 477.149 162.702  13
   2   2   9 324.749 132.522  13
   2  -2   9 195.706 128.069   2
   2  -2   9 115.232 90.5261  12
  -2  -2  -9 86.3018 106.510  19
  -2   2 -10 139.781 96.7925  19
   2  -2  10 125.760 82.2950  12
  -2  -2 -10 81.7499 94.3485  19
  -2  -2 -11 39573.4 1494.70  19
  -2   2 -11 39587.8 1518.77  19
   2  -2  11 39769.9 1357.12  12
   2   2  11 40125.3 1521.06  12
  -2   2 -12 3847.02 354.287  19
  -2  -2 -12 4461.12 375.156  19
   2   2  12 4294.98 368.116  12
   2   2  13 51153.2 1356.62  12
  -2  -3  14 17986.6 651.166  12
  -2  -3  13 31680.4 1145.31  12
  -2  -3  12 5728.57 497.475  12
  -2  -3  11 54112.5 1915.61  12
  -2  -3  11 52854.2 1849.13   7
  -2  -3  10 14634.3 893.372   7
  -2  -3  10 14447.4 904.821  12
  -2  -3   9 8651.85 676.307   7
  -2  -3   9 9429.08 705.279  12
   2  -3  -9 8008.60 641.250  18
   2  -3  -8 4877.45 470.384  18
  -2  -3   8 6400.82 555.616  12
   2   3  -8 4887.40 490.876  18
  -2  -3   8 5648.77 526.798   7
   2  -3  -7 5652.04 468.255  18
   2   3  -7 5377.76 470.729  18
  -2  -3   7 5419.89 492.065  12
  -2  -3   7 5756.87 514.212   7
   2   3  -6 1980.31 255.652  18
  -2  -3   6 1933.17 271.484  12
  -2  -3   6 1711.13 290.487   4
  -2  -3   6 1658.65 257.126   7
   2  -3  -6 1599.59 220.572  18
   2  -3  -5 83295.3 2171.78  18
   2   3  -5 85572.7 2214.32  18
   2   3  -4 43280.7 1238.19  18
   2  -3  -4 42121.5 1206.25  18
   2   3  -3 223495. 4763.00  18
   2  -3  -3 216317. 4727.72  18
   2  -3  -2 36972.5 1224.59  17
   2  -3  -2 39216.0 1263.14   3
   2  -3  -1 256223. 5409.49  17
   2  -3  -1 253350. 5431.87   3
   2  -3   0 101981. 2580.45  17
   2  -3   0 108599. 2660.87   3
   2  -3   1 151382. 3435.80  17
  -2  -3  -1 139364. 3132.83   1
   2  -3   2 5233.64 379.706  17
   2  -3   3 1500.52 206.020  17
   2  -3   4 13049.7 783.054   9
  -2  -3  -4 12402.3 611.115  19
   2  -3   5 58851.9 2093.42   6
  -2  -3  -5 54347.3 1698.57  19
  -2  -3  -5 55398.8 1887.76  15
   2  -3   5 55943.0 1967.95   9
   2  -3   5 55677.3 1903.16   4
  -2  -3  -6 8289.02 569.740  19
  -2   3  -6 8257.49 580.529  19
   2  -3   6 7483.43 644.160   9
  -2  -3  -6 7707.56 625.210  15
   2  -3   6 8025.30 654.641   7
  -2  -3  -7 179291. 4485.39  19
   2  -3   7 185857. 4798.94   9
  -2   3  -7 177890. 4510.06  19
  -2  -3  -7 178936. 4676.88  15
   2  -3   7 182545. 4437.19  13
   2  -3   7 181146. 4709.90   7
   2  -3   8 870.160 237.551   9
   2  -3   8 693.805 192.714   7
   2   3   8 751.611 190.025  13
  -2   3  -8 664.395 176.975  19
   2  -3   8 1020.51 207.823  13
   2  -3   8 630.379 144.359  12
  -2  -3  -8 710.692 191.648  19
  -2  -3  -8 1056.03 233.288  15
  -2  -3  -9 78383.6 2406.02  15
   2  -3   9 74307.0 2143.78  12
   2  -3   9 71475.7 2313.53   7
  -2  -3  -9 71812.5 2265.20  19
  -2   3  -9 76113.0 2326.06  19
  -2  -3 -10 12332.2 724.417  15
  -2  -3 -10 12951.5 722.642  19
   2   3  11 30492.2 1180.65  12
   2   3  12 7704.72 430.153  12
  -2  -4  13 6939.06 375.021   8
   2  -4 -13 4968.54 363.797  10
  -2  -4  12 463.739 128.800   8
  -2  -4  12 943.219 175.097  12
  -2  -4  11 1806.57 270.964  12
  -2  -4  11 1826.74 279.616   8
  -2  -4  11 1786.71 279.113   7
  -2  -4  10 38849.6 1522.02  12
  -2  -4  10 38650.3 1574.86   7
  -2  -4   9 23387.2 1197.32   7
  -2  -4   9 23315.5 1158.16  12
  -2  -4   8 75335.0 2478.51   7
  -2  -4   8 75514.2 2420.21  12
  -2  -4   8 72453.7 2594.62   4
  -2  -4   7 18577.1 1129.82   4
  -2  -4   7 20699.3 1082.77   7
  -2  -4   7 18645.3 1007.84  12
  -2  -4   6 108791. 3200.00   4
  -2  -4   6 106333. 3231.58   6
  -2  -4   6 101454. 2958.72  12
  -2  -4   5 40675.5 1646.70   6
  -2  -4   5 38928.0 1443.87   8
  -2  -4   5 36511.1 1442.48  12
  -2  -4   5 37982.5 1479.79   7
  -2  -4   4 80023.1 2298.87   7
  -2  -4   4 75332.3 2213.79   8
  -2  -4   4 80025.4 2421.52   6
  -2  -4   4 80050.8 2412.00   4
  -2  -4   3 3093.20 362.882   4
   2  -4  -3 3632.62 404.038  17
  -2  -4   3 3591.23 359.906   7
   2  -4  -3 3323.76 318.702   3
   2  -4  -2 742.506 144.526   3
   2  -4  -2 703.383 167.464  17
   2  -4  -2 734.635 209.604  10
   2  -4  -1 281.311 88.3483   3
   2  -4  -1 146.621 83.1645  17
   2  -4   0 30622.5 1139.44  17
   2  -4   0 32781.3 1389.38   4
   2  -4   1 40142.6 1331.38  17
   2  -4   1 40186.6 1596.89   4
   2  -4   1 40466.4 1644.53  10
   2  -4   2 62799.6 1807.94  17
   2  -4   2 63169.1 2162.87   4
  -2  -4  -2 61040.9 1957.24  15
   2  -4   3 16763.0 764.337  17
   2  -4   3 19103.2 1106.71   6
  -2  -4  -3 19361.6 979.775  15
   2  -4   3 19872.9 1039.21   9
   2  -4   3 19206.5 1049.57   4
   2  -4   4 109448. 3274.93   4
   2  -4   4 112142. 3402.86   6
   2  -4   5 45744.3 1955.67   6
  -2  -4  -5 46838.1 1800.47  15
   2  -4   5 46021.3 1847.88   4
   2  -4   5 46836.9 1866.97   9
   2  -4   5 48661.9 1887.39   7
   2  -4   6 109182. 3293.80   9
   2  -4   6 108080. 3396.10   6
  -2  -4  -6 106548. 3174.17  15
   2  -4   6 99224.0 3169.02   4
   2  -4   6 109157. 3271.04   7
   2  -4   7 10482.0 826.407   9
  -2  -4  -7 11051.8 802.524  15
   2  -4   7 10308.4 771.480   4
   2  -4   7 11409.4 835.466   7
  -2  -4  -8 4805.70 506.846  15
   2  -4   8 4482.22 518.178   9
   2  -4   8 4357.31 493.000   7
  -2  -4  -9 4803.75 477.739  15
   2  -4   9 5068.38 484.545   7
   2  -4  10 12575.9 675.063   7
   2   4  11 8086.04 437.728  12
  -2  -5  12 28497.8 882.015   5
   2  -5 -11 833.775 186.156  10
  -2  -5  11 733.734 159.571   7
  -2  -5  10 48004.7 1531.35   8
  -2  -5  10 47711.5 1691.23   7
   2  -5 -10 48269.8 1797.75  10
  -2  -5   9-52.9689 114.917   7
  -2  -5   9 101.872 84.2915   8
  -2  -5   8 6023.60 516.395   8
  -2  -5   8 5535.65 569.649   7
   2  -5  -7-25.4747 66.6556   4
  -2  -5   7-22.8887 59.8896   8
  -2  -5   7 101.857 213.022   4
  -2  -5   6 30302.5 1559.26   6
  -2  -5   6 26724.7 1179.07   8
  -2  -5   6 29690.0 1367.28   7
  -2  -5   5 754.795 454.583   6
  -2  -5   5 830.865 264.793   4
  -2  -5   5 541.027 149.785   8
  -2  -5   5 1062.42 234.131   7
  -2  -5   4 118811. 3444.34   6
  -2  -5   4 110656. 3213.08   7
  -2  -5   4 116949. 3406.61   4
  -2  -5   3 2094.70 364.702   6
   2  -5  -3 2222.77 373.790   4
  -2  -5   3 1652.93 299.737   4
  -2  -5   3 1498.87 256.818   7
   2  -5  -3 1519.55 333.103  10
   2  -5  -2 101192. 3212.07  10
  -2  -5   2 100833. 2915.82   4
   2  -5  -2 105144. 3169.31   4
  -2  -5   2 98692.7 2948.68   6
   2  -5  -1 5666.51 581.367   4
   2  -5  -1 4815.14 558.368  10
   2  -5  -1 4555.46 447.069  17
  -2  -5   1 3573.66 411.178   4
   2  -5   0 98150.5 3163.33  10
   2  -5   0 96861.7 2715.53  17
   2  -5   0 100609. 2840.73   7
  -2  -5   0 97842.5 2758.19   4
  -2  -5   0 97586.2 2701.63  15
  -2  -5  -1 6899.37 574.060  10
   2  -5   1 7361.64 692.829   4
   2  -5   1 7287.90 706.557  10
   2  -5   1 7615.21 617.546   9
  -2  -5  -1 6926.96 550.902  15
   2  -5   1 8073.09 640.478   7
   2  -5   2 31306.9 1513.73   4
  -2  -5  -2 31124.2 1312.12  10
   2  -5   2 29598.7 1383.77   9
  -2  -5  -2 32423.2 1350.50  15
   2  -5   2 30392.6 1396.99   7
   2  -5   3 520.039 179.231   7
   2  -5   3 564.976 236.510   6
   2  -5   3 544.502 194.301   4
   2  -5   3 302.531 153.586   9
  -2  -5  -3 593.229 183.554  15
   2  -5   4 2878.29 414.320   9
   2  -5   4 2250.78 465.144   6
  -2  -5  -4 2122.65 345.009  15
   2  -5   4 2313.93 391.424   4
   2  -5   4 2200.96 371.456   7
   2  -5   5 16568.6 1176.56   6
   2  -5   5 15803.2 1011.50   9
   2  -5   5 14567.5 1014.22   4
  -2  -5  -6 45688.3 1804.53  15
   2  -5   6 44679.8 1841.25   4
   2  -5   6 44612.4 1838.37   7
   2  -5   7 1716.54 311.228   4
   2  -5   7 1817.80 330.161   9
  -2  -5  -7 1409.61 274.991  15
   2  -5   7 1805.32 319.820   7
   2  -5   8 61438.1 2056.99   7
   2  -5   9 4482.55 409.819   7
   2  -5  10 35872.7 1108.81   7
   2  -6 -10 17456.0 740.652  10
   2  -6  -9 13581.1 774.828  10
   2  -6  -8 24836.9 1211.14  10
   2  -6  -7 54582.2 2066.67  10
  -2  -6   7 54233.9 1918.94   7
   2  -6  -6 18426.8 953.345   4
   2  -6  -6 20690.8 1216.07  10
  -2  -6   6 19330.4 1144.88   4
  -2  -6   6 19203.8 1044.14   7
  -2  -6   5 20306.5 1065.32   7
  -2  -6   5 21557.9 1265.54   6
   2  -6  -5 17483.4 1016.11   4
  -2  -6   5 21966.2 1201.87   4
  -2  -6   4 7322.27 768.013   6
   2  -6  -4 7290.14 657.643   4
  -2  -6   4 7849.03 693.657   4
  -2  -6   4 7347.20 604.782   7
  -2  -6   3 2420.78 428.073   6
   2  -6  -3 1790.16 337.732   4
  -2  -6   3 2201.56 361.125   4
  -2  -6   3 1944.87 298.399   7
   2  -6  -2 758.923 243.661  10
  -2  -6   2 1103.28 309.992   6
  -2  -6   2 729.176 204.830   4
   2  -6  -2 609.143 212.852   4
   2  -6  -1 49837.9 2126.57  10
  -2  -6   1 50885.5 1922.28   6
  -2  -6   1 52146.3 1858.37   4
   2  -6  -1 50429.2 2061.06   4
  -2  -6   0 17423.8 987.188   6
  -2  -6   0 16074.2 887.787   4
   2  -6   0 16201.2 887.495   9
   2  -6   0 16742.4 879.308   7
   2  -6   1 22662.7 1117.98   9
   2  -6   1 24673.4 1159.17   7
   2  -6   1 23545.3 1312.94   4
   2  -6   2 27990.6 1300.42   9
   2  -6   2 30695.3 1358.64   7
   2  -6   2 28469.9 1472.75   4
   2  -6   2 28173.2 1526.67   6
   2  -6   3 41718.4 1696.12   9
   2  -6   3 45403.8 1896.21   4
   2  -6   3 44542.3 1738.15   7
   2  -6   3 42246.0 1934.09   6
   2  -6   4 31622.9 1611.49   6
   2  -6   4 30768.6 1380.29   9
   2  -6   4 30438.9 1490.13   4
   2  -6   4 30485.6 1394.69   7
   2  -6   5 19799.3 1255.84   6
   2  -6   5 21334.5 1098.01   9
   2  -6   5 19010.2 1107.07   4
   2  -6   5 21501.1 1106.77   7
   2  -6   6 12909.3 830.501   4
   2  -6   7 8296.02 577.389   4
   2  -6   7 9355.55 626.399   7
   2  -6   8 608.962 147.802   7
   2  -6   9 6105.76 352.794   7
   2  -7  -8 57.2358 51.8899  10
   2  -7  -7 1554.33 231.376  10
   2  -7  -6 305.613 137.024  10
  -2  -7   6 168.267 89.5939   7
   2  -7  -5 37037.2 1518.63  10
  -2  -7   5 37162.3 1446.40   4
  -2  -7   4 91.6582 182.367   4
   2  -7  -4 140.220 82.9125   4
  -2  -7   3 42479.0 1607.46   6
  -2  -7   3 41057.1 1557.23   4
   2  -7  -3 42421.7 1592.45   4
  -2  -7   2 1023.91 343.856   6
   2  -7  -2 1047.96 235.799   4
  -2  -7   2 915.290 240.358   4
  -2  -7   1 28501.5 1223.71   6
   2  -7  -1 29968.5 1369.31   4
   2  -7   0 317.232 171.385   6
   2  -7   0 743.433 215.104   4
   2  -7   1 15016.4 985.165   6
   2  -7   2 382.930 303.488   6
   2  -7   2 277.287 130.925   4
   2  -7   3 388.560 151.853   4
   2  -7   3 218.421 367.868   6
   2  -7   3 592.441 142.676   7
   2  -7   4 1169.19 246.660   4
   2  -7   4 1127.90 429.991   6
   2  -7   4 1244.74 201.907   7
   2  -7   5 12805.8 713.858   4
   2  -7   5 11970.7 624.886   7
   2  -7   6 279.533 107.479   4
   2  -7   6 257.899 88.1592   7
   2  -8  -4 5912.32 388.754   6
   2  -8  -3 6794.24 459.936   6
   2  -8  -2 922.131 137.452   4
   2  -8  -1 3608.52 304.374   4
   2  -8   0 683.094 235.361   6
   2  -8   0 624.414 136.438   4
   2  -8   1 11474.2 657.033   6
   2  -8   1 11178.2 578.053   4
   2  -8   2 10936.4 602.993   6
   2  -8   3 23190.9 806.062   4
  -3   0  15 26496.3 820.130  12
  -3   0  14 14.9683 58.7476  12
  -3   0  13 70996.5 2136.56  12
  -3   0  12 319.116 119.449  12
   3   0 -11 5253.52 623.367  18
  -3   0  11 6497.31 542.951  12
   3   0 -10 35.6422 93.2576  18
  -3   0  10-22.3769 58.5492  12
   3   0  -9 55836.6 2096.82  18
  -3   0   9 55753.5 1795.52  12
  -3   0   8 70.0365 68.7344  12
   3   0  -8 81.7582 100.853  18
   3   0  -7 286381. 6654.77  18
   3   0  -6 38.3666 79.3658  18
   3   0  -5 127874. 3059.05  17
   3   0  -4 19.9855 43.3600  17
   3   0  -3 117397. 2683.46  17
  -3   0   2 54.0030 52.8880   1
   3   0  -2 85.8191 48.9589  17
  -3   0   1 6232.79 364.381   1
   3   0   0 231.446 87.5286   3
   3   0   1 4060.82 327.318   3
  -3   0  -2 49.9015 48.9726  19
  -3   0  -3 187717. 4345.66  19
  -3   0  -4 71.6253 74.0925  18
  -3   0  -4 70.1856 60.7495  19
  -3   0  -5 106909. 2934.64  18
  -3   0  -5 106520. 2917.31  19
  -3   0  -6 75.2559 80.4040  18
   3   0   6 69.3010 60.4648  13
  -3   0  -6 121.944 84.4330  19
  -3   0  -7 136592. 3819.35  18
   3   0   7 142489. 3798.52  13
  -3   0  -7 137500. 3808.67  19
   3   0   8 28.8963 75.6094  13
  -3   0  -8 30.6774 120.402  19
  -3   0  -9 2124.07 368.029  19
   3   0   9 1913.62 312.386  12
   3   0   9 2568.97 374.721  13
   3   0  10 220.482 124.925  13
   3   0  10 47.9247 70.1417  12
  -3   0 -10 284.876 129.127  19
  -3   0 -11 4597.98 459.924  19
   3   0  11 4754.50 420.361  12
  -3   0 -12 17.0306 54.5797  19
   3   0  12 47.8287 44.2506  12
  -3  -1  15 2514.47 193.860   8
  -3  -1  15 2982.09 228.966  12
  -3  -1  14 6888.35 460.574  12
  -3   1  14 5421.47 371.349  12
  -3   1  13 35059.4 1252.14  12
  -3  -1  13 33577.2 1327.52  12
  -3  -1  12 10599.8 720.852  12
  -3   1  12 9148.76 617.943  12
   3  -1 -11 15606.8 1076.70  18
   3   1 -11 13324.0 1011.12  18
  -3  -1  11 15487.9 898.732  12
  -3   1  11 15646.7 830.945  12
   3   1 -10 36262.0 1701.29  18
   3  -1 -10 33676.2 1632.15  18
  -3  -1  10 37188.8 1463.05  12
  -3   1  10 33940.0 1318.45  12
  -3  -1   9 66231.7 2119.91   7
  -3  -1   9 67260.3 2131.12  12
  -3   1   9 64298.0 1987.88  12
   3  -1  -9 69628.5 2385.75  18
  -3  -1   8 50197.3 1680.67   7
   3  -1  -8 52629.2 1866.07  18
   3   1  -8 50696.0 1873.31  18
  -3  -1   8 51032.7 1657.78  12
  -3   1   8 45174.8 1503.94  12
   3  -1  -7 24568.5 1111.36  18
   3   1  -7 25031.7 1146.29  18
   3  -1  -6 10661.4 648.633  17
   3   1  -6 9879.20 636.473  18
   3  -1  -6 11301.2 656.755  18
   3  -1  -5 730.155 162.312  17
   3   1  -4 128737. 2873.82  17
   3  -1  -4 136848. 3164.06  17
   3   1  -3 71302.1 1685.48  17
   3  -1  -3 77679.6 1924.96  17
   3  -1  -2 299570. 6413.48  17
  -3   1   2 294892. 6380.37   1
   3   1  -1 13061.0 575.366   3
  -3   1   1 13474.2 576.591   1
  -3  -1   1 13370.3 572.199   1
   3   1   0 136607. 3142.71   3
   3  -1   1 169499. 3878.42  14
   3   1   1 170481. 3894.99  14
  -3  -1  -2 7259.59 436.397  19
   3   1   2 8081.44 469.127  14
  -3   1  -2 7900.53 452.248  19
  -3  -1  -3 53632.9 1619.84  19
   3  -1   3 55641.4 1635.12  14
   3   1   3 57034.4 1649.61  14
  -3   1  -3 54171.8 1628.16  19
  -3   1  -4 2894.43 318.533  19
  -3  -1  -4 3505.22 341.937  19
  -3   1  -5 173.922 98.5300  18
  -3  -1  -5 43.3274 74.9915  18
   3  -1   5 20.1729 52.7922  13
   3   1   5 40.4933 52.9851  13
  -3  -1  -5 62.9339 95.0757  19
  -3   1  -5 189.421 95.3875  19
  -3   1  -6 4506.30 462.498  18
  -3   1  -6 4836.34 470.201  19
  -3  -1  -6 4417.90 460.089  18
   3  -1   6 3675.83 403.968  13
   3   1   6 4390.34 439.666  13
  -3  -1  -6 4677.35 464.672  19
  -3  -1  -7 32528.5 1450.34  18
  -3  -1  -7 33876.6 1455.50  19
   3  -1   7 31191.7 1376.30  13
   3   1   7 30762.3 1372.44  13
  -3   1  -7 32599.5 1455.87  18
  -3   1  -7 31009.6 1411.24  19
   3  -1   7 33277.5 1334.88  12
  -3  -1  -8 23665.9 1235.42  19
  -3   1  -8 21610.3 1194.55  19
   3  -1   8 22372.7 1168.22  13
   3   1   8 24201.5 1205.02  13
   3  -1   8 24133.7 1130.40  12
   3  -1   9 61146.0 2178.48  13
   3   1   9 65258.0 2227.54  13
  -3  -1  -9 63165.6 2263.83  19
  -3   1  -9 61681.7 2253.12  19
   3  -1   9 66656.6 2106.75  12
  -3   1 -10 66207.1 2239.09  19
   3   1  10 66556.7 2218.51  13
   3  -1  10 65654.8 2030.85  12
   3   1  10 68291.9 2211.11  12
  -3  -1 -10 63963.7 2211.95  19
   3  -1  10 62477.2 2170.95  13
  -3  -1 -11 59151.5 1937.36  19
  -3   1 -11 58976.4 1945.43  19
   3  -1  11 56440.2 1711.52  12
   3   1  11 61839.4 1895.80  12
   3   1  12 27684.2 971.091  12
  -3  -2  14 17302.5 752.481   8
  -3  -2  14 18026.2 766.297  12
  -3  -2  13 1410.09 243.928  12
  -3   2  13 967.231 152.855  12
  -3  -2  12 3463.19 408.218  12
  -3   2  12 3342.92 322.610  12
   3  -2 -11 764.047 234.465  18
   3   2 -11 578.191 211.900  18
  -3  -2  11 728.027 196.918  12
  -3   2  11 757.863 158.991  12
   3   2 -10 41288.5 1815.23  18
   3  -2 -10 40409.4 1747.52  18
  -3  -2  10 42211.0 1654.75  12
  -3  -2  10 40073.6 1590.78   7
  -3   2  10 41268.3 1417.26  12
   3  -2  -9 804.378 227.907  18
   3   2  -9 930.760 241.814  18
  -3  -2   9 652.215 177.558   7
  -3  -2   9 1293.69 253.315  12
   3   2  -8 129037. 3494.78  18
   3  -2  -8 116356. 3337.59  18
  -3  -2   8 119204. 3287.26   7
  -3  -2   8 119811. 3262.95  12
   3   2  -7 1574.56 279.340  18
   3  -2  -7 1190.70 229.191  18
  -3  -2   7 1435.00 232.214  12
  -3  -2   7 1207.16 223.220   7
   3  -2  -6 165855. 4323.49  17
   3   2  -6 168584. 4171.61  18
   3  -2  -6 170824. 4121.05  18
   3  -2  -5 266.828 117.077  17
   3  -2  -5 79.1491 68.7383  18
   3   2  -5 154.750 84.2108  18
   3  -2  -4 62644.7 1866.51  17
   3  -2  -3 62996.7 1819.30  17
   3  -2  -2 31621.7 1084.61  17
  -3   2   1 31072.2 994.443   1
  -3  -2   1 29748.9 963.267   1
   3   2  -1 29013.4 822.756   3
  -3  -2   0 7425.88 412.649   1
  -3   2   0 7168.63 415.095   1
   3  -2   0 6474.01 478.116   3
   3  -2   1 24111.9 849.875  14
   3   2   1 23015.5 848.182  14
   3  -2   1 22862.5 985.482   3
  -3  -2  -2 81680.2 2183.47  19
   3   2   2 88424.5 2214.25  14
  -3   2  -2 83965.6 2203.85  19
   3  -2   2 84742.6 2185.61  14
  -3   2  -3 7765.34 493.037  19
  -3  -2  -3 7880.53 491.902  19
  -3  -2  -4 243492. 5636.32  19
  -3   2  -4 250237. 5666.47  19
   3   2   5 6857.42 522.939  13
   3  -2   5 7356.65 598.162   9
  -3  -2  -5 6834.95 513.565  16
   3  -2   5 7061.11 526.575  13
  -3  -2  -5 7397.80 549.338  19
  -3   2  -5 7762.46 561.591  19
  -3  -2  -6 209955. 5123.42  19
   3  -2   6 203348. 5174.25   9
   3  -2   6 213107. 5101.95  13
   3   2   6 204487. 5069.25  13
  -3   2  -6 209725. 5132.20  19
   3  -2   7 10299.8 747.144   9
   3   2   7 9915.05 708.760  13
  -3   2  -7 9852.46 730.819  19
   3  -2   7 9986.50 705.196  13
   3  -2   7 10482.0 638.631  12
   3  -2   7 8966.32 680.160   7
  -3  -2  -7 10662.8 740.283  19
   3  -2   8 58873.3 2083.22   9
  -3  -2  -8 58124.3 2090.76  19
  -3  -2  -8 61045.5 2086.37  15
   3  -2   8 58306.5 2050.08  13
   3   2   8 61656.4 2108.78  13
   3  -2   8 61415.6 1913.83  12
  -3   2  -8 63934.9 2173.80  19
  -3  -2  -9 118.050 81.7295  15
   3  -2   9 76.6477 81.8818  13
   3   2   9 53.2341 85.3033  13
  -3   2  -9 27.4444 71.8175  19
   3  -2   9 36.9411 54.0451  12
  -3  -2  -9 80.9754 86.5042  19
  -3  -2 -10 23.6481 81.8668  19
  -3   2 -10 145.025 94.8762  19
  -3   2 -11 1091.93 197.790  19
  -3  -2 -11 1363.04 211.075  19
   3   2  11 1180.98 205.874  12
   3   2  12 15702.2 642.175  12
  -3  -3  14 13804.3 581.435   8
  -3  -3  13 1358.13 211.511   8
  -3  -3  12 30988.0 1217.93   5
  -3  -3  11 26731.2 1230.41   7
   3  -3 -10 47296.1 1701.12  11
  -3  -3  10 55749.6 1947.79   7
   3  -3  -9 17787.7 999.718  18
   3  -3  -9 17872.8 940.767  11
  -3  -3   9 20184.2 1079.93   7
   3  -3  -8 21513.7 1035.81  11
   3  -3  -8 21765.3 1067.82  18
  -3  -3   8 22537.9 1136.76   7
   3   3  -8 23797.4 1164.47  18
   3   3  -7 15289.4 851.868  18
   3  -3  -7 15326.9 820.368  18
   3  -3  -7 14563.9 804.125  11
  -3  -3   7 15360.3 880.024   7
  -3  -3   7 15196.3 875.200  12
   3  -3  -6 704.301 151.398  18
   3   3  -6 490.610 136.238  18
  -3  -3   6 555.172 159.455  12
  -3  -3   6 360.136 135.330   7
   3  -3  -5 3856.88 335.606  18
   3  -3  -5 3899.00 462.043  17
  -3  -3   5 3871.96 379.813   8
  -3  -3   5 3854.03 420.353   4
   3   3  -5 3579.53 339.688  18
  -3  -3   5 4017.23 394.659  12
   3   3  -4 80647.7 2121.29  18
   3  -3  -4 78117.6 2057.73  18
   3  -3  -3 25360.0 857.110  18
   3  -3  -2 82637.9 2378.34   3
   3  -3  -2 80273.9 2283.65  17
   3  -3  -1 53738.8 1690.85  17
   3  -3  -1 56569.2 1456.46  14
   3  -3  -1 57709.6 1806.26   3
  -3   3   0 247282. 5433.74   1
  -3  -3   0 252411. 5391.33   1
   3  -3   0 245810. 5340.26  14
   3   3   0 246226. 5379.77  14
   3  -3   0 255104. 5705.20  17
   3  -3   0 257210. 5809.42   3
   3  -3   1 1506.80 172.200  14
   3   3   1 2073.61 207.577  14
   3  -3   1 2339.59 301.525   3
  -3   3  -1 1917.43 213.271   1
  -3  -3  -1 1521.95 183.320   1
   3  -3   1 2210.75 273.204  17
   3  -3   2 108978. 2863.03  17
  -3  -3  -3 10649.2 580.495  19
   3  -3   3 10737.2 644.442  17
  -3  -3  -3 10739.5 669.704  16
   3  -3   4 16314.7 953.939   6
  -3  -3  -4 17003.5 896.656  16
  -3  -3  -4 16216.2 792.805  19
   3  -3   5 19056.4 1048.44   6
  -3   3  -5 18358.5 902.673  19
  -3  -3  -5 17577.5 872.016  19
   3  -3   5 17753.4 858.095  13
   3  -3   5 17795.2 1043.83   9
   3  -3   6 56533.4 2049.68   7
  -3   3  -6 53767.6 1839.52  19
  -3  -3  -6 52461.7 1970.68  15
   3  -3   6 53541.5 2043.06   9
  -3  -3  -6 52411.5 1800.48  19
   3  -3   6 52704.3 1758.09  13
   3  -3   7 209.858 130.244   7
  -3   3  -7 487.242 162.645  19
   3  -3   7 725.814 210.612   9
   3  -3   7 261.991 110.814  13
   3   3   7 588.393 168.773  13
  -3  -3  -7 120.022 96.3753  15
  -3  -3  -7 638.824 172.464  19
  -3  -3  -8 57658.4 2056.70  15
  -3  -3  -8 55260.7 1891.91  19
   3  -3   8 57145.6 2085.62   9
   3   3   8 59684.5 1949.37  13
   3  -3   8 55057.7 1847.41  13
   3  -3   8 55567.4 1991.09   7
  -3   3  -8 57854.5 1937.22  19
  -3  -3  -9 25559.1 1096.75  19
  -3  -3  -9 26734.7 1196.01  15
   3  -3   9 25667.6 1118.25   7
  -3  -3 -10 67069.2 1953.11  15
   3   3  11 17318.4 754.952  12
  -3  -4  13 11767.1 531.202   8
  -3  -4  12 4325.88 380.031   8
  -3  -4  12 4151.59 374.100   5
  -3  -4  11-22.4613 65.7089   7
  -3  -4  11 22.1719 58.0150   8
  -3  -4  11 129.850 89.5339  12
  -3  -4  10 4746.79 490.818   8
  -3  -4  10 4885.51 508.775   7
  -3  -4  10 4537.31 474.791  12
  -3  -4   9 15161.4 919.896   8
  -3  -4   9 14200.1 923.576   7
  -3  -4   9 15874.5 944.418  12
  -3  -4   8 7757.24 652.042   8
  -3  -4   8 8158.32 690.921   7
  -3  -4   8 8460.07 672.823  12
  -3  -4   7 75725.4 2403.16   8
  -3  -4   7 69850.6 2395.02   7
  -3  -4   7 73294.2 2400.57  12
  -3  -4   6 32732.4 1377.65   8
  -3  -4   6 29725.7 1428.73   4
   3  -4  -5 171040. 4535.04  17
  -3  -4   5 163331. 4308.12   6
  -3  -4   5 159370. 4178.00   8
  -3  -4   5 163421. 4341.55   4
  -3  -4   5 170590. 4285.71   7
   3  -4  -4 12573.4 770.302   3
  -3  -4   4 13921.5 835.218   6
  -3  -4   4 13984.3 784.298   8
  -3  -4   4 14011.9 847.213   4
  -3  -4   4 14116.3 816.998   7
   3  -4  -4 14305.6 908.685  17
  -3  -4   3 83597.9 2430.43   6
   3  -4  -3 85013.3 2586.91  17
  -3  -4   3 83310.0 2392.18   8
  -3  -4   3 85996.8 2505.32   4
  -3  -4   3 81203.9 2418.78   7
   3  -4  -3 83267.5 2436.36   3
   3  -4  -2 6546.23 606.948  10
   3  -4  -2 6070.30 526.812  17
   3  -4  -2 6335.75 502.590   3
   3  -4  -1 15028.7 809.809  17
   3  -4  -1 13942.7 915.603  10
  -3  -4   1 15565.2 799.228  16
   3  -4  -1 16868.0 844.472   3
   3  -4   0 39031.0 1626.22  10
  -3  -4   0 36965.8 1425.17  16
  -3  -4   0 40435.0 1415.13  15
   3  -4   0 40179.9 1654.92   4
   3  -4   0 39026.5 1427.35  17
   3  -4   1 28333.1 1170.94  17
   3  -4   1 31105.1 1412.64   4
   3  -4   1 27278.0 1335.69  10
  -3  -4  -1 30544.1 1257.32  16
   3  -4   2 22706.1 1008.49  17
   3  -4   2 25698.3 1265.81   4
  -3  -4  -3 92854.5 2745.59  15
   3  -4   3 83763.4 2445.44  17
   3  -4   3 93165.9 2885.33   6
   3  -4   3 85703.5 2769.89   4
   3  -4   4 7273.89 685.016   6
   3  -4   4 6187.24 620.039   9
   3  -4   4 6953.98 628.099   4
   3  -4   4 6500.61 495.566  17
   3  -4   5 84954.5 2807.55   6
   3  -4   5 85847.2 2852.71   9
   3  -4   5 79489.7 2671.16   4
  -3  -4  -5 87671.7 2772.32  15
   3  -4   5 87583.5 2834.82   7
  -3  -4  -6 2291.13 360.620  15
   3  -4   6 2490.40 398.861   9
   3  -4   6 2128.09 363.773   7
   3  -4   7 16064.5 1013.48   9
  -3  -4  -7 15010.7 956.838  15
   3  -4   7 14754.5 962.844   7
  -3  -4  -8 4447.85 474.336  15
   3  -4   8 3923.84 441.419   7
  -3  -4  -9 10014.9 654.127  15
   3  -4   9 10388.1 635.314   7
   3   4  10 1357.29 196.110  12
   3  -5 -12 2171.92 237.564  10
  -3  -5  12 1955.15 199.238   5
   3  -5 -11 52522.3 1719.77  10
  -3  -5  11 50094.6 1472.11   8
  -3  -5  10 14696.0 742.410   8
  -3  -5  10 15362.0 850.693   7
  -3  -5   9 27785.2 1272.17   7
  -3  -5   9 25730.2 1121.24   8
  -3  -5   8 13821.6 805.399   8
  -3  -5   7 4926.19 475.314   8
  -3  -5   7 4141.09 489.505   7
   3  -5  -6 4041.33 550.255  10
  -3  -5   6 3991.36 424.464   8
  -3  -5   6 4378.04 553.602   4
  -3  -5   6 4183.30 490.266   7
  -3  -5   5 260.486 340.807   6
   3  -5  -5 151.447 171.640  10
  -3  -5   5 138.338 114.542   7
  -3  -5   5 179.819 97.6227   8
  -3  -5   4 11477.7 844.331   6
   3  -5  -4 10817.1 907.598  10
  -3  -5   4 11938.1 843.212   4
  -3  -5   4 11824.3 788.932   7
  -3  -5   3 20776.8 1086.76   6
   3  -5  -3 21388.8 1259.69  10
   3  -5  -3 18367.3 1103.24  17
  -3  -5   3 20824.3 1090.58   4
  -3  -5   3 21380.3 1048.31   7
   3  -5  -2 47417.3 1793.71  17
   3  -5  -2 45950.8 1951.54  10
  -3  -5   2 43084.5 1587.46   7
  -3  -5   2 46209.9 1694.99   4
  -3  -5   2 47085.7 1689.17   6
   3  -5  -1 124399. 3445.00  17
   3  -5  -1 131743. 3824.23   4
   3  -5  -1 122185. 3708.18  10
  -3  -5   1 118639. 3254.97   4
   3  -5   0 4127.06 527.219   4
  -3  -5   0 4291.00 423.575  15
   3  -5   0 3770.63 499.798  10
   3  -5   0 2991.72 367.135  17
   3  -5   1 112645. 3482.71   4
  -3  -5  -1 117389. 3172.44  15
   3  -5   1 105410. 3008.15  17
   3  -5   2 4253.70 540.275   4
   3  -5   2 4303.74 549.295   6
   3  -5   2 5269.89 570.032   9
  -3  -5  -2 5176.28 513.758  15
   3  -5   3 34841.8 1699.54   6
  -3  -5  -3 36754.8 1566.91  15
   3  -5   3 36996.1 1672.92   9
   3  -5   3 38041.4 1704.67   4
   3  -5   3 39054.6 1700.66   7
   3  -5   4 344.398 312.162   6
  -3  -5  -4 148.823 123.155  15
   3  -5   4 33.0780 114.511   4
   3  -5   5 30.7607 80.4914   4
   3  -5   5 32.3234 353.800   6
   3  -5   5 128.431 111.139   7
   3  -5   6 3654.82 461.151   9
  -3  -5  -6 3758.61 450.754  15
   3  -5   6 3210.04 411.925   4
   3  -5   6 3663.08 459.451   7
   3  -5   7 29363.2 1327.95   9
  -3  -5  -7 29212.6 1295.29  15
   3  -5   7 28146.1 1281.79   7
  -3  -5  -8 6376.10 512.220  15
   3  -5   8 5662.06 472.975   7
   3  -5   9 38548.7 1124.54   7
   3   5   9 25620.9 944.510  12
   3  -6 -10 5067.97 396.596  10
  -3  -6  10 4787.37 368.924   5
   3  -6  -9 6250.97 521.774  10
  -3  -6   8 22646.8 1046.77   7
   3  -6  -7 32262.6 1287.30   4
  -3  -6   7 33937.8 1386.42   7
   3  -6  -6 31640.6 1386.35   4
   3  -6  -6 32322.9 1538.33  10
  -3  -6   6 30663.6 1341.31   7
   3  -6  -5 27007.3 1347.03   4
   3  -6  -5 29398.5 1480.31  10
  -3  -6   5 27157.1 1341.88   4
  -3  -6   5 26908.1 1233.11   7
   3  -6  -4 57655.6 2161.46   4
   3  -6  -4 58697.3 2254.06  10
  -3  -6   4 52443.5 1940.86   6
  -3  -6   4 56091.8 2023.59   4
  -3  -6   4 52330.2 1859.80   7
  -3  -6   3 4915.44 566.239   6
   3  -6  -3 4236.58 530.540   4
   3  -6  -3 4618.60 567.443  10
  -3  -6   3 4192.76 485.139   4
  -3  -6   3 3985.11 409.428   7
   3  -6  -2 15562.2 1054.16   4
  -3  -6   2 14678.3 884.153   6
   3  -6  -2 15578.3 1068.03  10
  -3  -6   2 14404.5 866.818   4
   3  -6  -1 255.229 150.942  10
   3  -6  -1 289.345 118.157   9
   3  -6   0 1182.73 233.204   7
   3  -6   0 1122.36 247.328   9
   3  -6   0 1205.59 297.936   4
  -3  -6  -1 3295.73 370.400  15
   3  -6   1 2832.37 441.984   6
   3  -6   1 3655.21 490.301   4
   3  -6   1 3158.97 405.077   9
   3  -6   1 2959.04 386.908   7
   3  -6   2 36790.4 1718.67   6
   3  -6   2 38031.6 1587.44   9
  -3  -6  -2 36811.4 1486.13  15
   3  -6   2 38622.1 1722.47   4
   3  -6   2 41225.4 1629.98   7
   3  -6   3 16652.5 1082.10   6
   3  -6   3 18624.8 1038.43   9
  -3  -6  -3 17147.6 953.599  15
   3  -6   3 18065.3 1091.60   4
   3  -6   3 19184.5 1051.97   7
   3  -6   4 66165.4 2390.33   6
   3  -6   4 74095.2 2364.07   9
  -3  -6  -4 74286.6 2316.50  15
   3  -6   4 72504.4 2419.40   4
   3  -6   4 70763.8 2335.51   7
   3  -6   5 19043.4 998.315   9
  -3  -6  -5 19255.4 978.506  15
   3  -6   5 18099.1 984.137   4
   3  -6   6 39659.6 1382.00   4
   3  -6   7 11396.7 622.739   7
   3  -6   8 14958.0 614.963   7
   3  -7  -8 3218.49 284.832  10
  -3  -7   8 2856.00 231.056   5
  -3  -7   7 442.251 106.309   5
   3  -7  -5 278.846 107.037   4
   3  -7  -5 166.248 116.343  10
   3  -7  -4 3764.42 444.747  10
   3  -7  -4 4201.06 423.432   4
   3  -7  -3 508.015 170.729   4
   3  -7  -2 84523.9 2610.60   4
   3  -7  -1 989.770 234.810   6
   3  -7   0 92056.5 2830.23   6
   3  -7   1 338.850 223.709   6
   3  -7   1 337.898 155.972   4
   3  -7   2 44467.6 1687.99   6
   3  -7   2 47545.0 1717.01   4
   3  -7   3 601.872 336.055   6
   3  -7   3 731.104 184.847   4
   3  -7   3 529.578 127.298   7
   3  -7   4 854.701 184.613   4
   3  -7   4 719.611 142.225   7
   3  -7   5 465.187 114.344   4
   3  -7   5 602.479 117.575   7
   3  -8  -3 10332.1 528.089   6
   3  -8  -2 12.4627 112.971   6
   3  -8  -2 99.8746 58.4558   4
   3  -8  -1 4931.77 385.980   6
   3  -8  -1 4974.51 343.894   4
   3  -8   0 467.877 181.375   6
   3  -8   0 567.036 122.521   4
   3  -8   1 1435.18 228.578   6
   4   0 -15 42.6599 46.2827  11
  -4   0  14 63044.6 1703.53   8
  -4   0  14 70136.9 1840.69  12
  -4   0  13 16.6523 43.5707   8
  -4   0  13-18.1289 78.6608  12
  -4   0  12 15852.0 845.626  12
   4   0 -11 39.2200 88.8782  18
  -4   0  11 67.2544 58.6685  12
   4   0 -10 5324.93 615.894  18
  -4   0  10 5424.69 470.960  12
   4   0  -9 103.132 127.210  18
  -4   0   9 39.7470 58.1452  12
  -4   0   8 27856.4 1179.46   5
  -4   0   8 27011.0 1079.94  12
   4   0  -7-26.3593 114.373  18
   4   0  -6 87362.0 2397.42  17
   4   0  -5 600.907 131.992  17
   4   0  -4 465395. 9808.19  17
   4   0  -3 17479.3 704.527  17
   4   0  -2 120366. 2905.10  17
  -4   0   2 125317. 3021.02   1
   4   0  -1 88.4491 80.1944   3
  -4   0   1 114.886 75.1775   1
   4   0   0 74755.2 2151.08   3
   4   0   1-19.0707 55.7912   3
  -4   0  -1 91.9240 63.3850  19
  -4   0  -2 47112.6 1519.88  19
  -4   0  -3-19.1840 56.1208  19
   4   0   4 89479.4 2583.79  13
  -4   0  -4 88046.3 2553.91  19
  -4   0  -5 74.0381 91.3280  19
   4   0   5 50.5210 66.1041  13
   4   0   6 168437. 4445.13  13
  -4   0  -6 170416. 4459.82  19
   4   0   7 30.2265 88.4319  13
  -4   0  -7 119.481 110.536  19
  -4   0  -8 45094.8 1820.38  19
   4   0   8 45220.4 1809.92  13
   4   0   9 1081.17 241.237  13
   4   0   9 627.239 166.746  12
  -4   0  -9 1460.42 285.866  19
   4   0  10 39917.7 1517.95  13
   4   0  10 37269.6 1323.39  12
  -4   0 -10 40321.3 1540.71  19
  -4   0 -11 137.565 77.9287  19
   4   0  11-21.6306 31.6387  12
  -4  -1  15 106.222 46.5872  12
   4   1 -15 64.0864 44.2197  11
   4  -1 -14 2600.05 296.360  11
  -4  -1  14 3899.83 328.748  12
  -4   1  14 2518.98 219.971  12
  -4  -1  14 3538.49 302.232   8
  -4  -1  13 22912.3 1020.17  12
  -4   1  13 23421.6 917.675  12
  -4  -1  12 23577.0 1085.95  12
  -4   1  12 19500.0 905.336  12
   4  -1 -11 74817.8 2700.86  18
  -4  -1  11 76060.5 2391.98  12
  -4   1  11 74610.4 2196.91  12
   4   1 -11 76153.5 2787.07  18
  -4  -1  10 93955.2 2788.80   5
   4   1 -10 97982.0 3196.96  18
  -4  -1  10 99411.7 2820.98  12
  -4   1  10 89847.2 2574.34  12
   4  -1 -10 99396.6 3163.51  18
   4   1  -9 41915.3 1844.51  18
   4  -1  -9 45623.2 1860.52  18
  -4  -1   9 42598.9 1630.94   5
  -4  -1   9 42395.3 1570.19  12
   4   1  -8 84702.0 2676.73  18
   4  -1  -8 81245.9 2587.71  18
  -4  -1   7 6652.36 489.240  12
   4   1  -7 7830.73 644.219  18
   4  -1  -7 8250.90 635.377  18
   4   1  -6 9114.63 660.393  18
   4  -1  -6 9524.77 639.227  17
   4  -1  -6 9047.23 642.246  18
   4  -1  -5 73.4919 79.7330  17
   4   1  -4 1359.96 151.762  17
   4  -1  -4 1330.29 198.519  17
   4   1  -3 567.953 102.624  17
   4  -1  -3 684.986 141.467  17
  -4  -1   2 30051.8 1068.59   1
  -4   1   2 30094.5 1084.60   1
   4  -1  -2 30476.4 1071.83  17
   4  -1  -1 67907.6 2089.32   3
  -4   1   1 70396.0 1947.86   1
  -4  -1   1 69575.8 1934.95   1
   4   1  -1 69927.9 1953.00   3
  -4   1   0 143571. 3468.08   1
  -4  -1   0 147428. 3477.18   1
   4   1   0 139685. 3457.69   3
   4  -1   0 142832. 3660.84   3
  -4   1  -1 123345. 3133.74  19
   4  -1   1 132988. 3235.31  14
   4   1   1 126158. 3220.15  14
   4  -1   1 130535. 3390.63   3
  -4  -1  -1 124674. 3132.62  19
  -4   1  -2 184928. 4505.93  19
   4   1   2 195556. 4569.11  14
  -4  -1  -2 180885. 4485.21  19
   4   1   3 129109. 3357.65  14
   4  -1   3 128204. 3325.44  14
  -4   1  -3 129644. 3312.55  19
  -4  -1  -3 122679. 3263.13  19
  -4   1  -4 42075.0 1547.92  19
   4  -1   4 42694.2 1575.05  13
   4   1   4 41493.4 1559.50  13
  -4  -1  -4 43977.4 1574.16  19
  -4  -1  -5 24787.3 1158.87  19
   4  -1   5 24003.4 1152.89  13
   4   1   5 23239.1 1137.45  13
  -4   1  -5 24119.9 1156.92  19
  -4   1  -6 16968.9 996.748  19
  -4  -1  -6 19499.4 1062.68  19
   4  -1   6 17099.1 993.369  13
   4   1   6 18710.5 1033.70  13
   4  -1   7 178.430 134.821  13
   4   1   7 269.853 135.933  13
   4  -1   7 173.292 94.0605  12
  -4   1  -7 118.415 109.604  19
  -4  -1  -7 236.523 139.507  19
  -4  -1  -8 20139.4 1022.30  15
   4  -1   8 20202.7 1109.35  13
   4   1   8 22013.3 1159.70  13
   4  -1   8 20954.4 974.867  12
  -4   1  -8 20742.4 1142.28  19
  -4  -1  -8 21341.1 1152.90  19
  -4  -1  -9 12224.9 814.127  19
  -4   1  -9 11922.8 808.653  19
   4  -1   9 11500.2 782.903  13
   4   1   9 11646.8 785.365  13
   4  -1   9 10293.5 622.823  12
  -4  -1 -10 36073.1 1405.89  19
   4  -1  10 34909.0 1372.97  13
   4   1  10 36861.6 1417.30  13
   4   1  10 35962.9 1322.25  12
  -4   1 -10 33409.8 1370.43  19
  -4   1 -11 25130.7 986.744  19
  -4  -1 -11 26480.2 1004.23  19
   4   1  11 26006.7 920.433  12
  -4  -2  14 7805.51 455.589   8
  -4  -2  14 7326.82 447.764  12
   4  -2 -13 25712.3 1052.11  11
  -4  -2  13 28453.0 1133.94   8
  -4  -2  13 27951.1 1123.36  12
  -4  -2  12 135.972 84.3368   5
   4  -2 -12 252.781 123.993  11
  -4  -2  12 117.262 92.0947  12
  -4  -2  11 7624.65 626.807  12
  -4  -2  11 6527.47 570.033   5
   4   2 -10 587.919 209.913  18
   4  -2 -10 695.875 212.746  18
  -4  -2  10 612.890 184.894  12
   4   2  -9 1131.35 276.912  18
   4  -2  -9 745.866 223.224  18
  -4  -2   9 642.994 181.856  12
   4  -2  -8 3939.40 464.702  18
   4   2  -8 4166.47 502.282  18
  -4  -2   8 3904.29 440.431   7
  -4  -2   8 4523.90 454.731  12
   4  -2  -7 60089.0 1996.25  18
   4   2  -7 57078.0 2031.70  18
  -4  -2   7 56727.2 1928.88   7
  -4  -2   7 54710.7 1855.14  12
   4  -2  -6 6430.48 523.009  11
   4  -2  -6 6355.65 518.188  18
   4  -2  -6 5994.42 550.546  17
  -4  -2   6 5942.62 502.812   7
  -4  -2   6 5821.26 471.224  12
   4   2  -6 7079.22 575.872  18
   4  -2  -5 312241. 7151.83  17
   4  -2  -4 92999.2 2596.02  17
   4  -2  -3 457068. 9855.90  17
   4  -2  -2 1295.69 213.703  17
   4  -2  -2 1142.51 235.010   3
   4   2  -2 1510.61 186.981   3
   4  -2  -1 223768. 5048.46  17
  -4   2   1 220815. 4951.38   1
  -4  -2   1 224537. 4925.68   1
  -4   2   0 11804.4 626.503   1
  -4  -2   0 11589.0 613.920   1
   4  -2   1 1248.04 195.199  14
   4   2   1 1474.01 219.429  14
   4  -2   2 2789.67 303.172  14
   4   2   2 2773.22 315.345  14
  -4   2  -2 3047.32 323.239  19
  -4  -2  -2 2948.29 315.140  19
  -4  -2  -3 103276. 2902.37  16
  -4  -2  -3 108758. 2886.45  19
  -4   2  -3 107035. 2891.63  19
  -4  -2  -4 3559.71 386.864  16
   4  -2   4 4302.03 421.694  13
   4   2   4 4473.69 435.993  13
  -4   2  -4 3849.20 411.735  19
  -4  -2  -4 3927.69 416.623  19
   4  -2   5 171788. 4624.40   9
   4  -2   5 167939. 4442.38  13
   4   2   5 182412. 4563.15  13
  -4  -2  -5 174992. 4466.75  16
  -4   2  -5 190647. 4591.77  19
  -4  -2  -5 186905. 4568.23  19
   4  -2   6 23135.1 1176.58   9
   4  -2   6 21222.1 1101.91  13
   4   2   6 22053.4 1136.67  13
  -4   2  -6 23424.7 1167.83  19
  -4  -2  -6 23859.2 1170.03  19
   4  -2   7 74854.7 2440.52   9
   4  -2   7 80886.0 2496.28  13
   4   2   7 77745.0 2505.92  13
  -4   2  -7 80303.5 2524.95  19
  -4  -2  -7 78247.6 2493.48  19
  -4   2  -8 357.545 139.586  19
  -4  -2  -8 267.644 126.502  15
   4  -2   8 584.153 172.838  13
   4   2   8 376.267 153.472  13
  -4  -2  -8 597.758 177.912  19
  -4   2  -9 46532.4 1667.87  19
  -4  -2  -9 41041.0 1514.35  15
   4  -2   9 43453.0 1589.04  13
   4   2   9 45139.8 1643.76  13
  -4  -2  -9 45995.9 1647.85  19
  -4   2 -10 3340.73 344.328  19
   4   2  10 3686.12 363.326  12
  -4  -2 -10 3965.23 366.035  19
   4   2  11 10060.3 497.098  12
  -4  -3  14 1669.99 174.583   8
  -4  -3  13 11515.7 630.006   8
  -4  -3  13 12065.4 642.773  12
  -4  -3  12 4920.81 436.754   5
  -4  -3  12 5863.32 494.611   8
  -4  -3  12 4423.50 436.845  12
  -4  -3  11 82867.6 2487.51   5
  -4  -3  11 80485.2 2493.43   8
  -4  -3  11 84093.0 2511.95  12
   4  -3 -10 6813.34 552.177  11
  -4  -3  10 7589.16 641.808   8
  -4  -3  10 7435.45 628.293  12
   4  -3  -9 94198.9 2761.80  11
  -4  -3   9 100773. 2971.35   7
  -4  -3   9 99907.9 2930.15  12
   4  -3  -8 9578.59 698.601  18
   4  -3  -8 10042.8 698.477  11
  -4  -3   8 10190.8 760.938   7
  -4  -3   8 11562.5 789.802  12
   4  -3  -7 67924.0 2169.01  18
   4  -3  -7 70669.9 2203.37  11
   4   3  -7 70631.6 2299.46  18
  -4  -3   7 68053.8 2287.66   7
  -4  -3   7 71167.9 2295.36  12
   4  -3  -6 12505.1 727.655  18
   4  -3  -6 11210.3 714.049  11
   4  -3  -6 13864.4 939.855  17
   4   3  -6 13993.2 811.475  18
  -4  -3   6 13915.9 816.930   8
  -4  -3   6 12990.4 801.466  12
   4  -3  -5 4315.58 410.404  11
   4  -3  -5 4690.08 516.877  17
   4   3  -5 4919.09 443.198  18
  -4  -3   5 4081.27 423.319   8
  -4  -3   5 5593.73 492.763   7
   4  -3  -5 5197.38 422.946  18
   4  -3  -4 1047.02 186.374  18
   4  -3  -4 678.463 192.677  17
  -4  -3   4 1167.24 219.484   7
  -4  -3   4 1068.93 202.190   8
   4  -3  -3 17425.0 974.049   3
  -4  -3   3 17241.6 862.196   8
   4  -3  -2 3228.71 394.075   3
   4  -3  -1 115171. 2789.51  14
   4   3  -1 110392. 2849.06  14
   4  -3  -1 114910. 3187.21   3
   4  -3  -1 110012. 2990.86  17
   4  -3   0 24501.5 1087.14  17
  -4  -3   0 22974.8 1038.14  16
   4  -3   0 23692.4 890.070  14
   4   3   0 21893.1 910.706  14
   4  -3   0 24709.2 1171.41   3
  -4   3   0 23212.6 935.523   1
  -4  -3   0 22104.0 882.754   1
   4  -3   1 96525.1 2677.21  17
   4  -3   1 92144.5 2418.87  14
   4   3   1 96080.9 2497.86  14
   4  -3   1 96958.5 2859.37   3
  -4   3  -1 93631.2 2515.65   1
  -4  -3  -1 92495.0 2459.24   1
   4  -3   1 94579.5 2712.47  11
   4  -3   2 28064.4 1262.65   4
  -4  -3  -2 28693.5 1246.26  16
  -4   3  -2 29800.6 1151.42   1
  -4  -3  -2 27817.3 1101.51   1
   4  -3   2 29998.3 1237.15  17
   4  -3   3 160380. 4076.13  17
  -4  -3  -3 158027. 4138.80  16
  -4  -3  -4 15993.7 919.176  16
   4  -3   4 13295.0 741.878  13
   4  -3   5 63163.3 2339.80   9
   4  -3   5 60326.4 1992.01  13
  -4  -3  -5 67082.6 2088.67  19
  -4   3  -5 66656.7 2099.68  19
   4  -3   6 9819.98 784.655   9
   4  -3   6 10331.9 672.162  13
   4   3   6 8122.10 629.245  13
  -4   3  -6 10177.9 690.075  19
  -4  -3  -6 10662.2 701.555  19
   4  -3   7 5973.78 581.996   9
  -4  -3  -7 6285.62 602.156  15
   4  -3   7 6214.39 503.330  13
   4   3   7 6446.55 540.719  13
   4  -3   7 6045.03 579.375   7
  -4   3  -7 5777.62 520.442  19
  -4  -3  -7 7305.35 563.615  19
  -4  -3  -8 8046.20 638.082  15
   4  -3   8 7782.84 535.970  13
   4   3   8 8354.46 585.462  13
   4  -3   8 7288.98 568.395   7
  -4  -3  -9 40272.6 1437.64  15
   4   3  10 6184.03 435.033  12
   4   3  11 26979.5 810.449  12
  -4  -4  13 7023.00 384.486   8
  -4  -4  12 15606.6 751.747   5
  -4  -4  12 17277.8 780.979   8
  -4  -4  11 1205.87 238.264   5
  -4  -4  11 952.013 196.366   8
  -4  -4  10 664.838 188.301   8
  -4  -4   9 1521.21 298.881   7
  -4  -4   9 913.928 220.753   8
  -4  -4   8 5410.86 542.100   8
  -4  -4   8 5683.24 573.184   7
  -4  -4   7 20074.1 1076.55   8
  -4  -4   6 35608.7 1485.11   8
  -4  -4   6 35743.3 1529.24   7
   4  -4  -5 57986.1 1864.91  11
   4  -4  -5 60204.7 2134.80   3
  -4  -4   5 63370.1 2053.62   8
  -4  -4   5 60539.9 2079.21   7
   4  -4  -4 53435.3 1997.99  17
  -4  -4   4 50464.9 1771.40   8
  -4  -4   4 49198.6 1808.35   4
  -4  -4   4 49196.8 1784.17   7
   4  -4  -4 49537.7 1655.81  11
   4  -4  -4 49249.5 1852.47   3
   4  -4  -3 23260.1 1183.70  17
  -4  -4   3 22816.7 1025.87  16
   4  -4  -3 23527.7 1239.48  10
  -4  -4   3 25770.3 1137.68   4
  -4  -4   3 24349.1 1119.21   7
   4  -4  -3 23515.3 1149.03   3
   4  -4  -3 22167.6 1022.29  11
   4  -4  -2 97519.0 2993.59  10
   4  -4  -2 96550.7 2880.05  17
  -4  -4   2 96985.5 2754.11  16
   4  -4  -2 100473. 2910.56   3
   4  -4  -2 96539.7 2729.24  11
   4  -4  -1 6152.07 543.341  17
   4  -4  -1 5540.07 555.175  10
  -4  -4   1 7148.89 563.570  16
   4  -4  -1 6555.21 571.398   3
   4  -4  -1 6097.57 513.033  11
   4  -4   0 6387.95 550.695  17
   4  -4   0 6199.49 571.001  10
   4  -4   0 5000.03 550.428   4
  -4  -4   0 4698.87 475.469  16
   4  -4   0 4562.42 455.976  11
   4  -4   1 1006.14 217.167  17
   4  -4   1 760.118 219.954   4
   4  -4   2 13058.8 901.745   4
   4  -4   2 13666.2 799.103  17
  -4  -4  -2 13998.3 884.563  16
   4  -4   2 13346.6 878.809   6
   4  -4   3 278.723 117.921  17
   4  -4   3 563.860 208.777   6
   4  -4   3 447.724 170.373   4
   4  -4   4 41860.0 1842.02   9
   4  -4   4 41677.1 1682.61   4
   4  -4   4 41889.7 1551.86  17
   4  -4   5 30201.1 1513.10   9
  -4  -4  -5 34723.7 1565.91  15
   4  -4   6 33663.1 1560.15   9
  -4  -4  -6 36730.2 1593.57  15
   4  -4   6 35380.0 1584.77   7
   4  -4   7 18399.1 1027.08   9
  -4  -4  -7 18453.4 1029.00  15
   4  -4   7 17456.8 991.763   7
  -4  -4  -8 40984.4 1539.10  15
   4  -4   8 43070.3 1498.67   7
  -4  -4  -9 13180.1 648.213  15
   4  -4   9 11389.5 535.776   7
   4   4  10 6047.78 328.886  12
  -4  -5  12 9426.83 438.369   5
   4  -5 -11 996.037 192.532  10
  -4  -5  11 756.707 153.591   5
  -4  -5  11 550.277 124.019   8
   4  -5 -10 32956.9 1409.34  10
  -4  -5  10 34675.1 1226.48   8
   4  -5  -9 8878.59 729.594  10
  -4  -5   9 9778.45 631.295   8
   4  -5  -8 58571.8 2205.39  10
  -4  -5   8 57295.3 1913.22   8
  -4  -5   7 619.142 195.252   7
   4  -5  -7 559.051 214.795  10
  -4  -5   7 750.784 187.154   8
   4  -5  -6 29294.6 1498.53  10
  -4  -5   6 26676.2 1216.53   8
  -4  -5   6 28655.7 1346.25   7
   4  -5  -5 214.779 155.353  10
  -4  -5   5 136.732 107.375   7
   4  -5  -4 4129.79 527.177  17
   4  -5  -4 3355.09 481.772  10
  -4  -5   4 4041.84 451.041   7
   4  -5  -3 12197.0 897.383  17
   4  -5  -3 12957.0 947.220  10
   4  -5  -2 45974.7 1925.71  10
   4  -5  -2 45040.4 1836.16  17
   4  -5  -2 47868.8 2050.86   4
   4  -5  -1 1759.46 308.143  17
   4  -5  -1 1791.63 346.295  10
   4  -5  -1 1729.48 358.728   4
   4  -5   0 55153.2 2165.70   4
  -4  -5   0 52012.1 1815.20  15
   4  -5   0 48521.9 1840.24  17
   4  -5   1 2200.11 392.630   4
   4  -5   1 2297.29 385.634   6
   4  -5   1 2173.18 312.747  17
  -4  -5  -1 1912.99 313.752  15
   4  -5   2 60141.2 2241.17   6
   4  -5   2 67306.7 2396.68   9
  -4  -5  -2 61761.7 2170.20  15
   4  -5   2 61970.8 2313.28   4
   4  -5   3 4176.46 520.385   6
  -4  -5  -3 3523.85 446.235  15
   4  -5   3 3873.93 482.994   4
   4  -5   4 40875.5 1676.49   6
   4  -5   4 43302.5 1830.40   9
  -4  -5  -4 45757.1 1791.43  15
   4  -5   4 43942.4 1734.49   4
   4  -5   5 10912.1 811.448   9
   4  -5   5 9576.27 663.187   4
   4  -5   5 10168.9 782.660   7
   4  -5   6 1314.78 257.882   7
  -4  -5  -6 2074.47 318.362  15
   4  -5   6 1243.42 250.745   9
  -4  -5  -7 1839.34 274.515  15
   4  -5   7 2101.02 285.556   7
   4  -5   8 10535.3 550.425   7
   4  -6 -10 3084.80 292.143  10
   4  -6  -9 316.724 122.006  10
  -4  -6   9 272.555 102.917   5
   4  -6  -8 7830.62 606.989  10
  -4  -6   8 7744.04 559.847   5
   4  -6  -7 14824.1 852.331   4
   4  -6  -7 15176.7 926.061  10
   4  -6  -6 38688.7 1598.77   4
   4  -6  -6 38738.2 1639.17  10
   4  -6  -5 33769.4 1536.77   4
   4  -6  -5 34153.7 1537.89  10
  -4  -6   5 29389.5 1274.19   5
   4  -6  -4 34187.9 1574.32  10
  -4  -6   4 32373.9 1312.88   5
   4  -6  -3 52402.7 2049.97  10
   4  -6  -2 13901.8 969.337   4
   4  -6  -2 13129.1 913.678  10
   4  -6  -2 11765.3 756.988   9
   4  -6  -1 24426.7 1312.96   4
   4  -6  -1 21703.2 1111.34   9
   4  -6  -1 22340.5 1040.88   7
   4  -6   0 2192.77 330.611   9
   4  -6   0 1960.44 355.179   4
   4  -6   0 1706.27 319.241   6
   4  -6   0 1809.68 293.925   7
   4  -6   1 206.245 121.616   7
   4  -6   1-29.3570 138.485   6
   4  -6   1 126.418 109.404   4
   4  -6   1 54.9341 95.0849   9
  -4  -6  -1 62.6190 66.9072  15
   4  -6   2 1716.97 374.881   6
  -4  -6  -2 1841.99 280.876  15
   4  -6   2 1460.53 281.010   9
   4  -6   2 2174.62 356.333   4
   4  -6   2 2178.67 329.265   7
   4  -6   3 18465.5 1017.02   6
   4  -6   3 19433.1 1034.18   9
  -4  -6  -3 17883.2 936.217  15
   4  -6   3 20007.9 1050.41   4
   4  -6   3 20926.8 1054.65   7
   4  -6   4 10353.6 699.736   9
  -4  -6  -4 10168.8 663.496  15
   4  -6   4 10446.8 677.590   4
   4  -6   4 11340.6 725.316   7
  -4  -6  -5 20028.9 898.180  15
   4  -6   5 15358.8 725.798   4
   4  -6   6 28767.7 1062.22   7
   4  -6   7 31363.5 974.894   7
   4  -7  -7 16102.5 722.323  10
   4  -7  -6 1840.17 252.494  10
   4  -7  -6 1620.41 200.088   4
   4  -7  -5 8381.08 542.432   4
   4  -7  -4 60.7471 83.7798   4
   4  -7  -3 19260.4 974.443   4
   4  -7  -2 111.974 97.1955   6
   4  -7  -1 31638.7 1304.31   6
   4  -7  -1 35276.0 1402.53   4
   4  -7   0 183.740 175.234   6
   4  -7   0 361.144 144.776   4
   4  -7   1 53944.0 1749.48   6
   4  -7   1 58324.2 1851.98   4
   4  -7   2 853.856 273.973   6
   4  -7   2 808.970 175.151   4
   4  -7   2 788.779 144.432   9
   4  -7   3 23710.6 909.847   4
   4  -7   3 23813.7 838.664   7
   4  -7   4 70.9877 44.9824   7
   5   0 -15 7953.27 411.267  11
  -5   0  14 38.0846 35.2390  12
  -5   0  13 1331.22 180.553   8
  -5   0  13 915.967 168.833  12
  -5   0  12 72.0947 66.7053   8
  -5   0  12 55.9600 77.1805  12
   5   0 -11 41340.9 1916.73  18
  -5   0  11 41554.2 1495.74   8
  -5   0  11 41576.2 1490.23  12
   5   0 -10 117.763 114.834  18
  -5   0  10 42.5578 73.6561   8
  -5   0  10 20.6978 46.9059  12
   5   0  -9 42774.5 1878.42  18
  -5   0   9 38328.5 1513.96   5
  -5   0   9 38900.2 1433.38   8
  -5   0   9 38021.5 1394.24  12
  -5   0   8 338.607 137.932   5
   5   0  -8 34.1916 100.034  18
  -5   0   8 19.4412 50.8927   8
  -5   0   8 252.807 100.240  12
  -5   0   7 535.899 161.774   5
  -5   0   7 629.575 141.741   8
   5   0  -7 775.398 215.069  18
   5   0  -6 138.354 81.7768  17
  -5   0   6 22.2885 58.3304   5
   5   0  -5 144027. 3535.96  17
   5   0  -4 92.0697 69.5659  17
   5   0  -3 137033. 3350.78  17
   5   0  -2 271.126 94.5412  17
   5   0  -2 224.965 106.148   3
  -5   0   2 36.6966 63.5638   1
   5   0  -1 113860. 3178.40   3
  -5   0   1 123178. 3149.48   1
  -5   0   0 78.1242 72.3702   1
   5   0   0 2883.89 353.765   3
   5   0   1 11433.8 760.023   3
  -5   0  -2 131.350 99.2455  19
  -5   0  -3 5792.45 487.808  16
  -5   0  -3 5975.30 530.943  19
   5   0   4 27.7198 72.5286  13
  -5   0  -4-26.8262 92.8534  19
   5   0   5 38910.6 1660.67  13
  -5   0  -5 41936.5 1688.55  19
   5   0   6 61.3064 106.103  13
  -5   0  -6 30.7481 98.5371  19
   5   0   7 128392. 3721.23  13
  -5   0  -7 131752. 3733.14  19
   5   0   8 55.2240 62.5869  13
  -5   0  -8 27.4713 62.2681  19
   5   0   9 133130. 3459.93  13
   5   0   9 124095. 3101.63  12
  -5   0  -9 131038. 3454.10  19
   5   0  10 66.5628 68.8559  13
   5   1 -15 11338.3 486.465  11
   5  -1 -14 1335.59 202.275  11
  -5  -1  14 1295.96 159.839   8
  -5  -1  14 1296.65 171.814  12
   5  -1 -13 253.999 114.212  11
  -5  -1  13 81.7802 67.7303   8
  -5  -1  13 199.563 87.0761  12
  -5  -1  12 6455.69 516.631   8
  -5  -1  12 6727.18 527.459  12
  -5  -1  11 19233.6 981.946   5
   5   1 -11 19966.1 1274.50  18
   5  -1 -11 19298.2 1208.61  18
  -5  -1  11 21150.8 1033.32   8
  -5  -1  11 20148.6 1008.78  12
   5   1 -10 28885.7 1555.84  18
   5  -1 -10 28192.0 1484.92  18
  -5  -1  10 28209.3 1281.94   5
  -5  -1  10 28031.8 1242.68   8
  -5  -1  10 25469.8 1190.28  12
   5   1  -9 64725.6 2452.73  18
   5  -1  -9 61385.8 2324.17  18
  -5  -1   9 61381.8 2089.27   5
  -5  -1   9 59394.0 2000.83   8
  -5  -1   9 57112.7 1944.71  12
   5   1  -8 52890.5 2098.65  18
  -5  -1   8 48289.5 1812.81   5
  -5  -1   8 48128.4 1713.59   8
   5  -1  -8 53644.6 2060.33  18
  -5  -1   8 49546.5 1711.66  12
   5  -1  -7 25437.8 1235.22  17
  -5  -1   7 24784.4 1168.91   5
   5   1  -7 27562.5 1366.60  18
  -5  -1   7 25679.9 1121.01   8
  -5  -1   7 24093.0 1055.63  12
   5  -1  -7 27288.0 1314.77  18
   5  -1  -6 37943.0 1482.04  17
  -5  -1   6 37248.4 1466.55   5
  -5  -1   6 38642.3 1381.88   8
  -5  -1   6 36119.1 1313.68  12
   5  -1  -5 39328.7 1466.92  11
   5  -1  -5 37859.9 1414.17  17
  -5  -1   5 39288.1 1475.39   5
   5  -1  -4 29326.8 1162.59  17
   5   1  -3 25462.9 917.167  17
   5  -1  -3 27207.6 1065.60  17
   5  -1  -2 1266.83 248.626   3
  -5   1   2 1376.73 221.681   1
  -5  -1   2 1197.79 201.661   1
   5   1  -2 965.432 198.340   3
   5  -1  -2 1244.06 206.716  17
  -5   1   1 25308.7 1065.72   1
  -5  -1   1 24847.4 1051.05   1
   5   1  -1 24653.5 1065.16   3
   5  -1  -1 25053.8 1165.94   3
  -5   1   0 27134.9 1116.54   1
  -5  -1   0 26167.1 1097.83   1
   5   1   0 27344.6 1138.65   3
   5  -1   0 24224.5 1189.86   3
  -5   1  -1 71648.3 2209.44   1
  -5  -1  -1 71174.2 2199.43   1
   5  -1   1 76601.4 2317.68  14
   5   1   1 79142.9 2384.13  14
   5  -1   1 75312.6 2436.63   3
  -5  -1  -2 110243. 3029.35  16
   5  -1   2 115833. 3104.75  14
   5   1   2 107744. 3077.77  14
   5  -1   2 104846. 3066.00  11
  -5   1  -3 31917.1 1346.73  19
  -5  -1  -3 31594.4 1310.38  16
  -5  -1  -3 31635.4 1340.31  19
   5  -1   3 30796.6 1347.55  14
   5   1   3 32711.2 1404.78  14
  -5  -1  -4 81669.3 2509.44  16
   5  -1   4 84562.8 2646.72  13
   5   1   4 82113.6 2658.91  13
  -5   1  -4 88172.9 2657.08  19
  -5  -1  -4 87804.5 2647.49  19
  -5   1  -5 71466.3 2366.03  19
   5  -1   5 67237.0 2333.28  13
   5   1   5 64913.4 2324.31  13
  -5  -1  -5 71689.3 2356.49  19
   5  -1   6 13677.5 907.534  13
   5   1   6 13478.0 908.603  13
  -5   1  -6 15174.2 955.121  19
  -5  -1  -6 15567.3 961.715  19
   5  -1   7 176.130 133.102  13
   5   1   7 120.990 104.782  13
  -5   1  -7 290.060 131.521  19
  -5  -1  -7 347.961 146.983  19
  -5   1  -8 628.650 181.742  19
  -5  -1  -8 543.775 158.908  15
   5  -1   8 542.415 172.737  13
   5   1   8 614.773 185.441  13
  -5  -1  -8 838.295 208.827  19
   5  -1   9 1386.57 239.579  13
   5   1   9 1332.59 240.662  13
   5   1   9 1388.85 215.102  12
   5   1  10 4278.29 296.602  12
   5   2 -14 23525.5 882.228  11
  -5  -2  14 23687.0 810.082   8
  -5  -2  13 781.113 162.552   8
   5  -2 -13 472.554 134.056  11
  -5  -2  13 562.747 145.720  12
   5  -2 -12 47858.4 1669.74  11
  -5  -2  12 45711.6 1568.94   5
  -5  -2  12 47025.4 1667.21   8
  -5  -2  12 50239.8 1695.81  12
  -5  -2  11 1764.89 288.611   5
   5  -2 -11 1471.80 270.031  11
  -5  -2  11 1648.97 286.744   8
  -5  -2  11 1582.34 275.306  12
   5   2 -10 41809.7 1885.98  18
   5  -2 -10 36108.8 1675.25  18
   5  -2 -10 39393.4 1614.37  11
  -5  -2  10 40051.8 1633.40   5
  -5  -2  10 41696.4 1629.18   8
  -5  -2  10 39096.7 1569.41  12
   5  -2  -9 4327.42 516.436  18
   5  -2  -9 3581.14 444.281  11
  -5  -2   9 3866.03 468.541   5
  -5  -2   9 3520.87 425.264   8
   5   2  -9 3846.15 522.293  18
  -5  -2   9 3493.88 416.361  12
   5  -2  -8 4075.98 469.317  11
   5  -2  -8 4256.25 495.678  18
  -5  -2   8 4185.94 475.231   5
  -5  -2   8 3459.42 419.924   8
  -5  -2   8 4164.84 449.798  12
   5   2  -8 4117.86 522.970  18
   5   2  -7 973.462 255.369  18
   5  -2  -7 1046.47 243.329  18
   5  -2  -7 879.467 212.130  11
   5  -2  -7 1004.84 251.550  17
  -5  -2   7 983.432 229.574   5
  -5  -2   7 826.254 209.288   8
  -5  -2   7 854.560 196.682  12
   5  -2  -6 88258.9 2648.59  11
   5  -2  -6 95246.6 2749.16  18
   5  -2  -6 89547.6 2783.45  17
  -5  -2   6 86922.6 2676.37   5
  -5  -2   6 86433.5 2590.50   8
  -5  -2   6 82351.2 2541.48  12
   5  -2  -5 1576.34 258.728  11
   5  -2  -5 1861.98 301.521  17
  -5  -2   5 1381.82 245.450   8
   5  -2  -4 168124. 4160.85  11
   5  -2  -4 166419. 4217.00  17
  -5  -2   4 168089. 4201.67   5
  -5  -2   4 162840. 4081.14   8
   5  -2  -3 5940.61 487.833  11
   5  -2  -3 6316.63 506.840  17
  -5  -2   3 5958.65 471.166   8
   5  -2  -2 180841. 4437.07  17
   5  -2  -1 43212.3 1530.18  17
  -5  -2   1 43771.3 1558.18  16
  -5   2   1 41601.9 1478.57   1
  -5  -2   1 42489.0 1472.96   1
   5  -2   0 40949.3 1528.20  17
  -5  -2   0 43362.2 1592.78  16
   5  -2   0 44234.0 1545.93  14
   5   2   0 47677.5 1645.94  14
  -5   2   0 43338.0 1540.85   1
  -5  -2   0 43926.1 1531.96   1
  -5  -2  -1 11864.9 754.699  16
  -5   2  -1 12283.5 738.748   1
  -5  -2  -1 12265.5 734.230   1
   5  -2   1 12439.6 731.731  14
   5   2   1 13396.8 798.561  14
   5  -2   1 12985.6 814.847  11
  -5  -2  -2 18489.7 942.094   1
  -5  -2  -2 17484.6 957.927  16
   5  -2   2 18481.6 939.005  14
   5   2   2 17387.0 950.449  14
  -5   2  -2 18631.0 953.639   1
   5  -2   2 16260.5 962.540  11
  -5  -2  -3 9473.64 700.314  16
   5  -2   3 10241.1 699.478  13
   5   2   3 9518.85 692.414  13
  -5  -2  -4 4214.84 460.131  16
   5  -2   4 4301.04 453.727  13
   5   2   4 3595.66 439.657  13
  -5   2  -4 3674.37 431.527  19
  -5  -2  -4 3852.79 437.547  19
  -5  -2  -5 19527.3 1016.22  16
   5  -2   5 16755.5 1005.27   9
   5  -2   5 16026.9 944.836  13
   5   2   5 17500.3 1009.78  13
  -5   2  -5 17767.4 1006.22  19
  -5  -2  -5 17808.2 1002.03  19
   5  -2   6 25345.0 1225.80   9
   5  -2   6 26111.3 1251.09  13
   5   2   6 26333.8 1292.15  13
  -5   2  -6 27650.2 1294.59  19
  -5  -2  -6 27437.4 1284.80  19
   5  -2   7 2833.22 364.861  13
   5   2   7 2767.20 379.500  13
  -5  -2  -7 2629.27 357.815  19
  -5   2  -7 2679.41 362.624  19
  -5  -2  -8 104127. 2966.54  15
   5  -2   8 107857. 2942.70  13
   5   2   8 110224. 3021.28  13
   5  -2   9 373.287 116.737  13
   5   2   9 784.893 165.330  13
   5   2  10 44409.5 1257.45  12
  -5  -3  14 1943.70 171.125   8
  -5  -3  13 19.0033 30.4560   5
  -5  -3  13 13.4752 46.6466   8
  -5  -3  12 8066.91 553.741   5
  -5  -3  12 9658.03 615.777   8
   5  -3 -11 4636.06 416.824  11
  -5  -3  11 4830.67 477.943   5
  -5  -3  11 5266.72 490.557   8
   5  -3 -10 33532.0 1363.87  11
  -5  -3  10 37800.2 1569.99   5
  -5  -3  10 35672.9 1496.84   8
  -5  -3  10 38074.7 1546.79  12
   5  -3  -9 15884.5 902.827  11
  -5  -3   9 17226.8 1032.63   5
  -5  -3   9 16019.6 961.325   8
  -5  -3   9 16567.7 988.486  12
   5  -3  -8 81436.6 2629.34  18
   5  -3  -8 87610.7 2634.66  11
   5  -3  -7 24414.8 1167.80  18
   5  -3  -7 23239.2 1130.50  11
   5  -3  -7 25403.7 1390.67  17
  -5  -3   7 26257.5 1226.84   8
   5   3  -6 76899.8 2436.73  18
   5  -3  -6 70175.8 2233.43  18
   5  -3  -6 68633.0 2230.79  11
   5  -3  -6 73135.1 2553.10  17
   5   3  -5 78.7786 84.1816  18
   5  -3  -5 151.346 93.8405  18
   5  -3  -5 205.199 103.353  11
   5  -3  -5 60.8862 89.0863  17
   5  -3  -4 21402.6 1040.32  11
   5  -3  -4 23693.2 1248.87   3
   5  -3  -4 24208.1 1199.04  17
  -5  -3   4 24686.0 1068.30  16
  -5  -3   4 23138.7 1139.07   5
   5  -3  -3 3927.78 408.506  11
   5  -3  -3 3915.96 441.993  17
  -5  -3   3 3873.83 403.470  16
  -5  -3   3 3477.95 397.981   5
   5  -3  -3 3732.34 465.329   3
  -5  -3   2 18234.7 945.328  16
  -5  -3   2 16532.5 867.591   5
   5  -3  -2 17430.5 1030.12   3
   5  -3  -2 16813.1 909.893  11
  -5  -3   1 1975.81 310.201  16
  -5  -3   1 2260.50 281.754   5
   5  -3  -1 2624.74 297.285  14
   5   3  -1 2114.38 292.690  14
   5  -3  -1 2443.91 375.073   3
   5  -3  -1 2161.38 319.947  11
   5  -3   0 56527.7 1940.57  17
  -5  -3   0 52321.2 1717.74   1
  -5   3   0 54954.9 1780.44   1
   5  -3   0 56355.8 1735.34  14
   5   3   0 56016.4 1828.53  14
   5  -3   0 56083.1 2097.32   3
   5  -3   0 55762.2 1979.04  11
   5  -3   1 16611.6 917.953  17
   5  -3   1 13383.8 862.351   4
  -5   3  -1 14761.5 803.669   1
  -5  -3  -1 13849.3 758.632   1
  -5  -3  -1 15852.1 923.849  16
   5  -3   1 14529.7 765.195  14
   5   3   1 14613.4 817.426  14
   5  -3   1 14446.4 912.791  11
  -5  -3  -2 83925.2 2641.91  16
   5  -3   2 86708.2 2587.96  17
   5  -3   2 76935.7 2343.78  13
  -5  -3  -2 85188.0 2452.49   1
   5  -3   3 42868.4 1619.23  17
  -5  -3  -3 40677.3 1656.11  16
  -5  -3  -3 39271.6 1500.79   1
   5  -3   3 38063.9 1446.57  13
  -5  -3  -4 71413.3 2424.79  16
  -5  -3  -4 72267.4 2280.68   1
   5  -3   4 72279.7 2546.58   9
   5  -3   4 70222.0 2201.28  13
   5   3   4 75991.6 2334.51  13
   5  -3   4 74210.0 2353.76  17
   5  -3   5 5020.46 476.094  17
   5  -3   5 5319.56 578.474   9
   5  -3   5 4773.82 449.630  13
   5   3   5 5032.12 492.945  13
   5  -3   6 29707.4 1373.81   9
  -5  -3  -6 29498.4 1405.57  15
   5  -3   6 28818.2 1178.07  13
   5   3   6 29150.9 1252.65  13
   5  -3   6 29524.3 1372.19   7
   5  -3   7 7076.30 559.254   9
  -5  -3  -7 7356.09 616.085  15
   5  -3   7 7112.94 493.471  13
   5   3   7 7503.63 541.741  13
   5  -3   7 7068.95 559.008   7
  -5  -3  -8 512.509 147.250  15
  -5  -3  -9 1620.76 193.987  15
   5  -4 -13 21867.0 789.155  10
  -5  -4  12 2735.19 276.323   5
  -5  -4  11 13526.4 763.349   5
  -5  -4  10 474.884 166.996   5
  -5  -4   9 4186.22 487.338   5
  -5  -4   9 4486.81 468.937   8
   5  -4  -8 75.7501 60.6957  11
  -5  -4   8 26.2223 97.0358   8
   5  -4  -7 801.242 185.230  11
   5  -4  -7 1088.10 244.860   3
  -5  -4   7 1066.78 234.812   8
   5  -4  -6 1593.61 258.147  11
   5  -4  -6 1356.18 320.582  17
   5  -4  -6 1109.63 273.369   3
  -5  -4   6 1452.17 271.183   8
   5  -4  -5 24507.8 1100.56  11
   5  -4  -5 23996.4 1271.82  10
  -5  -4   5 25358.2 1239.25   5
  -5  -4   5 23508.5 1164.38   8
   5  -4  -5 23234.2 1244.90   3
   5  -4  -4 827.745 191.024  11
   5  -4  -4 996.159 247.226   3
   5  -4  -4 691.796 201.383  10
  -5  -4   4 786.199 192.431  16
  -5  -4   4 1212.35 249.820   5
   5  -4  -3 106777. 3228.68  17
   5  -4  -3 105798. 3151.04  10
  -5  -4   3 104173. 3000.79  16
  -5  -4   3 111932. 3067.72   5
   5  -4  -3 103663. 3192.12   3
   5  -4  -3 107778. 3022.73  11
   5  -4  -2 38456.4 1607.50  17
   5  -4  -2 38748.8 1580.19  10
  -5  -4   2 38381.4 1534.39  16
  -5  -4   2 36915.0 1441.22   5
   5  -4  -2 37057.2 1621.11   3
   5  -4  -2 39459.8 1535.63  11
   5  -4  -1 78258.7 2498.37  10
   5  -4  -1 81199.1 2552.30  17
  -5  -4   1 80725.1 2534.07  16
   5  -4  -1 78354.9 2618.22   3
   5  -4  -1 78237.1 2486.35  11
   5  -4   0 25627.2 1237.57  17
   5  -4   0 27934.5 1397.67   4
  -5  -4   0 27446.6 1311.66  16
   5  -4   0 25238.9 1232.78  11
   5  -4   1 26963.7 1351.30   4
   5  -4   1 26297.3 1236.42  17
   5  -4   2 3908.51 426.526  17
  -5  -4  -2 4371.59 507.765  16
   5  -4   2 3626.65 446.033   4
   5  -4   3 655.123 165.455  17
   5  -4   4 37271.7 1687.94   9
   5  -4   5 42430.6 1762.36   9
  -5  -4  -5 46523.2 1824.18  15
   5  -4   5 40695.0 1745.24   7
   5  -4   6 14741.3 890.721   9
  -5  -4  -6 16234.6 949.149  15
   5  -4   6 14923.5 897.283   7
   5  -4   7 55906.7 1824.46   9
  -5  -4  -7 61884.8 1955.19  15
   5  -4   7 59034.0 1849.65   7
  -5  -4  -8 12454.4 634.980  15
   5  -4   8 10758.3 511.071   7
   5   4   9 9354.72 421.326  12
   5  -5 -11 10345.4 583.716  10
  -5  -5  11 9468.40 524.312   5
   5  -5 -10 469.566 156.145  10
  -5  -5  10 672.082 163.303   5
   5  -5  -9 47443.8 1753.36  10
   5  -5  -8 3031.18 416.933  10
  -5  -5   8 3289.79 403.592   5
   5  -5  -7 58493.9 2127.78  10
  -5  -5   7 55301.6 2002.46   5
   5  -5  -6 17627.5 1062.07  10
  -5  -5   6 16743.2 987.712   5
   5  -5  -5 14798.8 983.535  10
  -5  -5   5 15948.9 940.579   5
   5  -5  -4 9166.67 746.589  10
   5  -5  -4 10017.5 829.531  17
  -5  -5   4 8820.15 659.740   5
   5  -5  -3 82.4694 76.4163  11
   5  -5  -3 564.504 189.409  17
   5  -5  -3 546.241 198.553  10
  -5  -5   3 311.793 120.210   5
   5  -5  -2 10915.4 795.999  10
   5  -5  -2 9912.13 780.065  17
   5  -5  -2 11538.7 910.961   4
   5  -5  -1 21434.5 1252.02   4
   5  -5  -1 20060.7 1116.03  17
  -5  -5   1 20067.0 976.999  15
   5  -5   0 1608.75 280.284  17
   5  -5   0 1476.19 285.509   6
  -5  -5   0 1434.04 260.574  15
   5  -5   0 1708.42 338.009   4
   5  -5   1 60881.3 2091.15   6
  -5  -5  -1 66863.4 2183.70  15
   5  -5   1 59989.9 2221.02   4
  -5  -5  -2 16287.6 967.581  15
   5  -5   2 15861.5 955.910   4
   5  -5   3 57248.5 2146.95   9
  -5  -5  -3 59432.7 2080.07  15
   5  -5   3 57568.6 1953.92   4
   5  -5   4 16402.1 971.919   9
  -5  -5  -4 15030.2 901.656  15
   5  -5   4 15293.8 940.189   7
   5  -5   5 21866.6 1073.07   9
   5  -5   5 20573.2 1037.97   7
   5  -5   6 6620.03 492.379   9
  -5  -5  -6 6699.58 503.823  15
   5  -5   6 5989.07 468.619   7
  -5  -5  -7 8078.22 472.716  15
   5  -5   7 6745.34 415.062   7
   5  -6 -10 4407.17 294.838  10
  -5  -6  10 4562.60 283.615   5
   5  -6  -9 154.598 78.0807  10
  -5  -6   9 182.227 71.1567   5
   5  -6  -8 1842.29 247.681   4
   5  -6  -8 1746.23 251.420  10
  -5  -6   8 1454.77 216.963   5
   5  -6  -7 907.240 203.406  10
  -5  -6   7 632.212 152.375   5
   5  -6  -7 860.092 194.658   4
   5  -6  -6 5676.15 531.538   4
   5  -6  -6 4695.36 475.037  10
  -5  -6   6 4845.27 419.808   5
   5  -6  -5 6709.74 624.009   4
   5  -6  -5 6181.09 557.699  10
  -5  -6   5 6179.87 464.776   5
   5  -6  -4 50466.7 1840.79  10
   5  -6  -3 22382.4 1203.29   4
   5  -6  -3 23263.3 1140.55  10
   5  -6  -2 48173.3 1899.20   4
   5  -6  -1 20446.2 1107.14   4
   5  -6  -1 16586.0 938.178   6
   5  -6  -1 19880.0 1024.51   9
   5  -6  -1 18147.6 901.464   7
   5  -6   0 40844.1 1550.89   6
   5  -6   0 41398.9 1622.87   9
   5  -6   0 42998.1 1567.94   7
   5  -6   0 46289.4 1734.89   4
   5  -6   1 6022.59 511.988   6
   5  -6   1 7387.75 599.246   9
   5  -6   1 7534.64 604.357   4
   5  -6   1 7870.24 592.268   7
   5  -6   2 4307.84 442.859   9
  -5  -6  -2 4608.33 391.932  15
   5  -6   2 3680.13 390.287   4
   5  -6   2 4271.85 421.588   7
   5  -6   3 79.6377 82.3785   7
   5  -6   3 96.5089 69.8061   4
   5  -6   3 103.809 94.1015   9
  -5  -6  -3 33.8248 62.5970  15
  -5  -6  -4 149.855 75.9875  15
   5  -6   5 11647.0 577.684   9
   5  -6   5 11520.6 570.808   7
   5  -7  -6 25905.3 862.121   4
   5  -7  -5 13.6964 40.0675   4
   5  -7  -4 6542.57 451.538   6
   5  -7  -4 7833.05 511.752   4
   5  -7  -3 780.883 160.163   6
   5  -7  -2 770.654 179.489   6
   5  -7  -2 967.058 190.458   4
   5  -7  -1-12.5616 125.160   6
   5  -7  -1 84.9612 66.7004   4
   5  -7   0 16740.5 694.150   6
   5  -7   0 23329.4 898.664   4
   5  -7   1 482.150 114.202   4
   6   0 -14 22236.8 869.937  11
   6   0 -13 20.0574 78.7209  11
   6   0 -12 85188.8 2599.87  11
   6   0 -11-28.6533 91.8224  11
   6   0 -10 58109.2 2294.43  18
  -6   0  10 51407.5 1701.23   8
   6   0  -9 115.273 133.013  18
  -6   0   9 97.3762 72.0920   8
   6   0  -8 1854.17 318.790  11
  -6   0   8 1950.32 322.006   5
  -6   0   8 1439.74 233.083  16
  -6   0   8 1438.67 233.664   8
   6   0  -8 2059.74 382.539  18
   6   0  -7 27.3103 79.8961  11
  -6   0   7 21.2060 55.4920  16
  -6   0   7 132.520 98.0760   5
  -6   0   7 55.3201 41.7928   8
   6   0  -6 5024.66 494.799  11
  -6   0   6 5521.04 430.508   8
   6   0  -5 164.183 110.672  11
   6   0  -5 132.834 82.3872  17
   6   0  -4 86115.1 2485.73  11
   6   0  -4 81305.6 2333.44  17
  -6   0   4 89724.0 2533.81  16
   6   0  -4 80306.6 2656.72   3
   6   0  -3 104.199 67.0138  11
   6   0  -3 1488.31 229.955  17
   6   0  -2 154420. 3881.24  11
   6   0  -2 152853. 3802.75  17
  -6   0   2 152485. 3941.52  16
  -6   0   2 157996. 3981.89   1
   6   0  -2 151641. 4085.95   3
   6   0  -1 42.9316 68.7952  11
   6   0  -1-27.6407 72.3287   3
  -6   0   1 23.5731 75.5476   1
  -6   0   0 141058. 3756.21  16
   6   0   0 140051. 3908.84   3
  -6   0   0 149592. 3871.94   1
   6   0   0 142729. 3742.91  11
   6   0   1 222.543 121.074  11
  -6   0  -1 78.5017 83.9044   1
  -6   0  -1 191.917 104.131  16
  -6   0  -2 41931.7 1678.70   1
  -6   0  -2 41235.4 1586.20  16
  -6   0  -3-24.6204 64.4211  16
   6   0   4 21579.4 1196.57  13
   6   0   5 62.1104 99.5252  13
   6   0   6 27147.8 1325.42  13
   6   0   7 79.2023 84.6168  13
   6   0   8 54108.3 1786.54  13
   6   0   9-14.4989 42.4150  13
   6  -1 -14 575.860 122.012  11
   6   1 -14 572.542 123.970  11
   6  -1 -13 6837.96 495.792  11
   6   1 -13 6099.79 493.741  11
  -6  -1  13 6157.38 392.924   8
   6  -1 -12 304.276 133.579  11
   6   1 -12 194.249 114.657  11
  -6  -1  12 304.559 101.577   8
  -6  -1  11 906.399 203.358   5
  -6  -1  11 817.501 180.381   8
  -6  -1  11 1285.43 232.853  12
   6  -1 -10 11404.7 914.483  18
  -6  -1  10 12091.8 802.178   5
   6   1 -10 11875.0 963.087  18
  -6  -1  10 12087.1 749.557   8
  -6  -1  10 12089.4 733.645  12
   6  -1  -9 26330.4 1408.04  18
   6   1  -9 26960.2 1487.91  18
  -6  -1   9 24312.4 1230.02   5
  -6  -1   9 25517.2 1152.17   8
  -6  -1   9 24637.1 1123.42  12
   6  -1  -8 32486.0 1472.51  11
  -6  -1   8 34093.1 1468.95   5
  -6  -1   8 34534.0 1358.82   8
  -6  -1   8 29580.3 1270.10  12
   6   1  -8 34769.4 1682.23  18
   6  -1  -8 33787.0 1611.59  18
   6  -1  -7 56664.7 2009.66  11
   6   1  -7 55864.8 1967.63  11
   6  -1  -7 53929.9 1993.86  17
  -6  -1   7 54728.1 1980.20   5
  -6  -1   7 49718.8 1724.21  16
  -6  -1   7 52407.9 1797.83   8
   6   1  -7 58812.2 2225.87  18
   6  -1  -7 60770.6 2171.69  18
   6  -1  -6 140082. 3699.31  11
   6   1  -6 133343. 3620.13  11
   6  -1  -6 131012. 3633.52  17
  -6  -1   6 141422. 3722.60   5
  -6  -1   6 130937. 3488.24  16
  -6  -1   6 132162. 3484.60   8
   6  -1  -5 53032.3 1803.10  11
   6   1  -5 51474.3 1746.50  11
   6  -1  -5 46104.0 1694.83  17
  -6  -1   5 47650.8 1792.19   5
  -6  -1   5 48140.4 1692.88  16
  -6  -1   5 49926.5 1674.83   8
   6  -1  -4 47029.7 1638.11  11
   6   1  -4 43699.6 1534.64  11
   6   1  -4 40995.6 1637.36   3
   6  -1  -4 42842.3 1786.85   3
   6  -1  -4 41126.6 1541.51  17
  -6  -1   4 43468.2 1587.37  16
   6  -1  -3 49189.4 1916.19   3
   6  -1  -3 52433.4 1760.45  11
   6   1  -3 49676.3 1645.59  11
   6  -1  -3 51844.0 1716.57  17
  -6  -1   3 47638.0 1729.68  16
   6   1  -3 50273.5 1797.90   3
   6  -1  -2 39915.6 1509.61  11
   6  -1  -2 40579.8 1485.24  17
   6   1  -2 39859.0 1336.44  17
   6   1  -2 39132.7 1528.16   3
   6  -1  -2 40096.5 1663.02   3
   6  -1  -1 4548.20 429.443  17
  -6  -1   1 3744.68 411.984  16
  -6   1   1 3859.45 422.532   1
  -6  -1   1 3975.18 423.263   1
   6   1  -1 4344.04 450.817   3
   6  -1  -1 3813.03 467.902   3
   6  -1  -1 3252.68 386.781  11
  -6  -1   0 18596.3 999.143  16
  -6   1   0 19241.2 974.153  16
   6  -1   0 19094.6 1019.11  14
   6   1   0 20142.9 1070.72  14
   6  -1   0 19273.0 1112.51   3
   6  -1   0 19294.7 1018.19  11
  -6   1   0 19090.0 1002.40   1
  -6  -1   0 18305.9 985.070   1
  -6  -1  -1 19262.6 1032.10  16
  -6   1  -1 19292.7 980.466  16
   6  -1   1 20110.4 1067.78  14
   6   1   1 20053.4 1086.61  14
  -6   1  -1 20004.3 1057.12   1
  -6  -1  -1 20324.3 1063.62   1
   6  -1   1 18987.2 1045.32  11
  -6   1  -2 79497.0 2564.44   1
  -6  -1  -2 80465.1 2568.63   1
  -6  -1  -2 81890.6 2577.55  16
  -6   1  -2 83289.7 2469.04  16
   6  -1   2 81392.9 2596.76  14
   6   1   2 85033.7 2676.52  14
  -6   1  -3 63329.1 2210.95   1
  -6  -1  -3 63773.7 2209.15   1
  -6  -1  -3 61932.0 2125.73  16
   6  -1   3 58011.0 2146.33  13
   6   1   3 62436.2 2226.04  13
  -6  -1  -4 113917. 3310.07  16
   6  -1   4 122292. 3513.33  13
   6   1   4 121284. 3550.01  13
   6  -1   5 22297.7 1181.70  13
   6   1   5 22105.5 1202.57  13
   6  -1   6 26258.0 1276.21  13
   6   1   6 26407.8 1307.31  13
   6  -1   7 5937.01 527.769  13
   6   1   7 5996.73 546.134  13
   6  -1   8 16117.1 794.749  13
   6   1   8 17527.4 845.654  13
   6  -1   9 2102.63 225.773  13
   6   1   9 1917.86 221.258  13
   6   2 -14 458.106 93.8961  11
   6  -2 -13 48330.7 1484.53  11
   6   2 -13 50890.2 1567.58  11
  -6  -2  13 53718.7 1499.78   8
   6  -2 -12 6151.42 496.693  11
   6   2 -12 6621.16 522.310  11
  -6  -2  12 5404.98 437.729   5
  -6  -2  12 7051.10 497.332   8
   6  -2 -11 56330.4 1925.65  11
  -6  -2  11 56071.2 1906.54   5
  -6  -2  11 58905.4 1891.47   8
   6  -2 -10 3697.03 436.042  11
  -6  -2  10 3426.38 423.730   5
  -6  -2  10 3973.07 431.042   8
   6   2  -9 35058.1 1722.31  18
   6  -2  -9 34441.4 1606.54  18
   6  -2  -9 37840.7 1549.88  11
  -6  -2   9 35569.8 1548.27   5
  -6  -2   9 36033.9 1478.62   8
   6   2  -8 74.0926 96.9545  18
   6  -2  -8 160.003 138.866  18
   6  -2  -8 248.607 135.232  11
   6   2  -8 106.309 104.330  11
  -6  -2   8 58.9514 86.2521   5
  -6  -2   8 101.124 87.5303   8
   6   2  -7 1013.28 271.377  18
   6  -2  -7 1174.85 259.420  18
   6  -2  -7 1212.30 255.156  11
   6   2  -7 851.365 210.978  11
   6  -2  -7 1304.77 287.162  17
  -6  -2   7 1511.75 293.018   5
  -6  -2   7 1161.33 240.802   8
   6  -2  -6 25.9168 75.8259  11
   6  -2  -6 59.6297 87.2276  17
  -6  -2   6 246.493 100.557  16
  -6  -2   6 84.3737 90.1353   5
  -6  -2   6 23.8487 69.7769   8
   6  -2  -5 189.272 106.332  17
  -6  -2   5 599.745 164.523  16
  -6  -2   5 393.650 135.643   8
   6  -2  -4 3312.44 399.778  17
  -6  -2   4 3254.28 380.755  16
  -6  -2   4 3280.15 406.179   5
   6  -2  -3 49778.0 1768.17  17
  -6  -2   3 49190.0 1777.38   5
  -6  -2   3 48626.6 1752.34  16
   6  -2  -3 47804.0 1927.02   3
   6  -2  -2 5677.44 515.687  17
  -6  -2   2 6631.39 575.107  16
   6  -2  -2 6977.52 571.063  11
   6  -2  -1 105755. 3064.46  17
   6  -2  -1 112183. 3050.01  14
   6   2  -1 113745. 3165.35  14
  -6  -2   1 104944. 2990.76   1
  -6   2   1 103364. 3005.01   1
   6  -2  -1 108201. 3112.51  11
   6  -2   0 10153.3 721.054  17
  -6  -2   0 10059.8 737.006  16
  -6  -2   0 9617.14 686.939   1
  -6   2   0 9391.66 681.759   1
   6  -2   0 10492.1 706.900  14
   6   2   0 10692.8 764.057  14
   6  -2   0 9091.49 707.432  11
  -6   2  -1 161071. 4244.72   1
  -6  -2  -1 160035. 4223.79   1
   6  -2   1 159570. 4229.01  17
  -6  -2  -1 160275. 4321.20  16
  -6   2  -1 157720. 4114.02  16
   6  -2   1 167817. 4228.84  14
   6   2   1 169990. 4347.27  14
   6  -2   1 164030. 4371.54  11
  -6  -2  -2 2357.30 360.374  16
   6  -2   2 1925.64 308.402  14
   6   2   2 2587.51 377.975  14
  -6   2  -2 2248.24 345.180   1
  -6  -2  -2 2484.90 354.516   1
  -6  -2  -3 58123.3 2124.46  16
  -6   2  -3 58961.9 2098.43   1
  -6  -2  -3 58628.0 2085.55   1
   6  -2   3 59797.0 2073.68  13
   6   2   3 59723.8 2147.31  13
  -6  -2  -4 10918.7 777.692  16
  -6  -2  -4 10949.5 782.606   1
  -6   2  -4 11754.3 814.782   1
   6  -2   4 11010.8 789.970   9
   6  -2   4 11483.6 789.183  13
   6   2   4 13030.7 872.527  13
  -6  -2  -5 1090.07 230.866  16
   6  -2   5 1009.10 214.363   9
   6  -2   5 1216.85 242.926  13
   6   2   5 1260.21 260.567  13
   6  -2   6 2412.98 334.750  13
   6   2   6 2279.13 338.624  13
   6  -2   6 1970.26 296.236   7
  -6  -2  -7 41505.2 1531.00  15
   6  -2   7 39764.1 1427.47  13
   6   2   7 42186.7 1512.18  13
  -6  -2  -8 3140.45 295.971  15
   6  -2   8 3312.76 297.992  13
   6   2   8 3753.57 329.928  13
   6   2   9 19683.7 628.600  12
  -6  -3  13 2569.86 228.156   8
  -6  -3  12 875.602 162.635   5
  -6  -3  12 913.430 169.929   8
   6  -3 -11-33.1319 65.0225  11
   6   3 -11 100.465 65.7217  11
  -6  -3  11 63.0864 67.3929   5
  -6  -3  11 58.7073 67.7397   8
   6  -3 -10 1488.96 249.279  11
  -6  -3  10 1606.44 290.460   5
  -6  -3  10 1467.35 258.035   8
   6  -3  -9 18681.7 973.757  11
  -6  -3   9 20276.0 1102.79   5
  -6  -3   9 19436.1 1025.53   8
   6  -3  -8 1441.43 265.229  11
  -6  -3   8 1602.32 311.967   5
  -6  -3   8 1463.00 272.897   8
   6  -3  -7 117693. 3396.39  18
   6  -3  -7 123258. 3388.62  11
   6  -3  -7 126201. 3763.04  17
  -6  -3   7 126807. 3483.67   8
   6  -3  -6 199.277 103.109  18
   6  -3  -6 275.583 126.985  11
   6  -3  -6 137.401 110.130  17
   6  -3  -6 289.006 156.786   3
  -6  -3   6 87.6137 108.119   5
  -6  -3   6 130.754 102.692   8
   6  -3  -5 148404. 3831.70  11
   6  -3  -5 138883. 4113.31   3
   6  -3  -5 141242. 4014.38  17
  -6  -3   5 141509. 3724.48  16
  -6  -3   5 144066. 3914.88   5
   6  -3  -5 141869. 3772.29  18
   6  -3  -4 28724.4 1282.16  11
   6  -3  -4 28449.4 1354.69  17
  -6  -3   4 27704.8 1257.71  16
  -6  -3   4 27623.6 1287.47   5
   6  -3  -4 31492.8 1496.92   3
   6  -3  -3 51045.9 1899.71  17
  -6  -3   3 51896.7 1877.39  16
  -6  -3   3 46400.9 1764.31   5
   6  -3  -3 49038.1 1984.83   3
   6  -3  -3 52583.5 1852.15  11
   6  -3  -2 3843.82 447.909  17
  -6  -3   2 3435.32 392.520   5
  -6  -3   2 3464.39 429.683  16
   6  -3  -2 3876.85 391.608  14
   6  -3  -2 3671.50 482.499   3
   6  -3  -2 4483.37 476.011  11
   6  -3  -1 1386.08 280.907  11
   6  -3  -1 1406.49 299.112   3
  -6  -3   1 1724.39 316.643  16
   6  -3  -1 1412.41 237.121  14
   6  -3   0 1361.21 281.198  11
   6  -3   0 2012.23 323.904  17
   6  -3   0 1725.27 296.990   4
   6  -3   0 1758.38 257.746  14
   6  -3   1 24809.2 1244.39  17
  -6  -3  -1 24882.3 1273.88  16
  -6  -3  -1 24381.4 1111.99   1
  -6   3  -1 24842.7 1112.77  16
  -6  -3  -2 27779.2 1357.14  16
  -6  -3  -2 25225.3 1165.01   1
   6  -3   2 25037.7 1132.88  13
   6   3   2 27921.8 1261.76  13
   6  -3   3 62168.0 2157.34  17
  -6  -3  -3 64039.3 2275.39  16
   6  -3   3 63467.6 2018.54  13
   6   3   3 65154.2 2153.05  13
  -6  -3  -4 19409.1 1089.28  16
   6  -3   4 20911.6 1143.14   9
   6  -3   4 19949.4 958.638  13
   6   3   4 20457.4 1035.29  13
   6  -3   5 33337.6 1398.64   9
   6  -3   5 32214.5 1229.98  13
   6   3   5 33585.9 1331.52  13
   6  -3   6 16176.7 808.199   9
  -6  -3  -6 17303.1 952.362  15
   6   3   6 16021.3 783.026  13
   6  -3   6 14970.1 836.962   7
  -6  -3  -7 35783.8 1321.37  15
  -6  -3  -8 33.2365 41.0002  15
   6  -4 -12 19201.2 783.282  10
  -6  -4  12 21411.8 758.484   5
   6  -4 -11 5103.64 433.436  10
  -6  -4  11 5616.65 435.624   5
  -6  -4  10 36013.7 1393.20   5
  -6  -4   9 8229.07 642.392   5
   6  -4  -8 5738.84 465.149  11
   6  -4  -7 145.853 90.5704  11
   6  -4  -7 638.842 195.759  10
  -6  -4   7 451.399 169.225   5
   6  -4  -6 14691.7 1022.29  17
   6  -4  -6 13966.4 897.848  10
  -6  -4   6 14826.5 924.558   5
   6  -4  -6 14317.5 815.336  11
   6  -4  -5 1162.45 229.119  11
   6  -4  -5 762.797 236.232   3
   6  -4  -5 1367.76 305.129  17
  -6  -4   5 1180.72 209.305  16
   6  -4  -5 1100.47 241.726  10
  -6  -4   5 1126.13 247.318   5
   6  -4  -4 35824.4 1495.88  10
  -6  -4   4 40052.0 1522.19  16
  -6  -4   4 39557.4 1563.14   5
   6  -4  -4 35878.8 1639.48   3
   6  -4  -4 40085.9 1547.26  11
   6  -4  -3 32787.8 1512.01  17
  -6  -4   3 32477.5 1407.98  16
  -6  -4   3 31643.7 1349.83   5
   6  -4  -3 32652.5 1526.42   3
   6  -4  -3 34142.3 1422.50  11
   6  -4  -2 41395.1 1704.36  17
  -6  -4   2 39289.9 1481.36   5
  -6  -4   2 42970.8 1711.24  16
   6  -4  -2 40328.8 1747.16   3
   6  -4  -2 44424.9 1686.94  11
   6  -4  -1 10302.1 780.393  17
   6  -4  -1 11521.3 853.294   4
   6  -4  -1 12603.6 831.490  11
   6  -4   0 50646.9 1961.10   4
   6  -4   0 54591.4 1981.64  17
  -6  -4   0 57431.2 2098.35  16
   6  -4   1 10341.6 727.608   4
   6  -4   1 12196.1 798.680  17
  -6  -4  -2 35505.8 1569.91  16
   6  -4   3 2353.75 375.933   9
   6  -4   4 430.723 153.752   9
   6  -4   5 3120.58 364.880   9
  -6  -4  -5 3958.48 428.992  15
   6  -4   5 3055.25 374.251   7
   6  -4   6 12137.5 643.977   9
  -6  -4  -6 13819.9 746.442  15
   6  -4   6 13192.9 689.848   7
  -6  -4  -7 4321.95 338.779  15
   6  -4   7 3714.50 253.238   7
   6  -5 -11 34.2192 35.3967  10
  -6  -5  11 27.5144 31.7509   5
   6  -5 -10 4724.33 367.298   4
   6  -5 -10 4886.82 375.785  10
   6  -5  -9 142.308 87.1207  10
   6  -5  -8 29055.0 1217.76  10
  -6  -5   8 30643.7 1233.61   5
   6  -5  -7 226.826 118.739  10
  -6  -5   7 110.832 96.2298   5
   6  -5  -6 52979.9 1846.09  10
  -6  -5   6 53430.0 1823.01   5
   6  -5  -5 7000.09 574.109  10
  -6  -5   5 7085.03 562.096   5
   6  -5  -4 40442.8 1560.93  10
  -6  -5   4 40326.3 1476.56   5
   6  -5  -4 42204.7 1451.84  11
   6  -5  -3 2837.01 356.938  10
   6  -5  -3 3541.13 469.214   4
   6  -5  -2 1052.98 260.275   4
   6  -5  -1 290.601 137.197   4
   6  -5   0 13590.5 858.771   4
  -6  -5   0 13721.7 784.771  15
  -6  -5  -1 3212.23 374.538  15
   6  -5   1 3327.08 381.287   4
   6  -5   2 32599.9 1431.57   9
  -6  -5  -2 32270.6 1327.76  15
   6  -5   3 1442.88 264.473   7
   6  -5   3 1569.52 273.056   9
  -6  -5  -3 1768.17 273.877  15
   6  -5   4 47584.5 1628.45   9
  -6  -5  -4 50293.6 1642.31  15
   6  -5   4 49163.4 1657.04   7
   6  -5   5 388.281 112.596   7
   6  -5   5 537.940 126.491   9
   6  -5   6 39962.8 1123.59   7
   6  -6  -8 2692.55 261.025   4
   6  -6  -8 2168.76 227.362  10
  -6  -6   8 2147.89 210.590   5
   6  -6  -7 7633.49 512.722   4
   6  -6  -7 6583.72 432.594  10
  -6  -6   7 6969.60 410.135   5
   6  -6  -6 30.3014 62.6819  10
   6  -6  -5 5730.81 507.762   4
   6  -6  -4 12235.9 777.322   4
   6  -6  -3 5752.30 512.520   4
   6  -6  -3 4760.26 401.312   6
   6  -6  -2 21916.8 1045.51   4
   6  -6  -2 20551.5 957.747   9
   6  -6  -1 24478.7 1071.98   9
   6  -6  -1 25038.1 977.749   7
   6  -6  -1 24229.0 1083.77   4
   6  -6   0 20789.4 941.953   9
   6  -6   0 17867.5 862.626   4
   6  -6   0 19140.9 859.493   7
   6  -6   1 21744.4 945.531   9
   6  -6   1 21142.0 894.694   7
   6  -6   2 5066.03 387.981   7
   6  -6   3 11708.1 562.041   7
   6  -6   4 125.152 53.6507   9
   6  -7  -4 96.9283 47.4856   4
   6  -7  -3 6623.18 380.788   4
   6  -7  -2 9.85809 40.7838   4
   6  -7  -1 98.8387 52.8253   4
   7   0 -14 18.1771 39.4364  11
   7   0 -13 25029.1 973.270  11
   7   0 -12 61.0090 79.8240  11
   7   0 -11 33533.3 1390.16  11
   7   0 -10 81.2307 93.7350  11
   7   0  -9 17131.9 1128.93  18
   7   0  -9 16457.9 989.133  11
   7   0  -8-36.0043 124.622  18
   7   0  -8 28.2120 82.5292  11
  -7   0   8 21.2267 62.0952  16
   7   0  -7 35680.0 1516.54  11
  -7   0   7 35151.3 1410.22  16
   7   0  -6 52.2963 90.5064  11
   7   0  -6-35.2788 103.202   3
  -7   0   6 49.5718 79.4274  16
   7   0  -5 3348.34 399.283  11
   7   0  -5 4122.81 520.483   3
  -7   0   5 3957.22 436.724  16
   7   0  -4 72.1640 77.0937  11
   7   0  -4 83.5873 77.3338  17
   7   0  -4-31.9847 72.4861   3
  -7   0   4 259.693 127.126  16
   7   0  -3 25783.8 1170.19  11
   7   0  -3 25413.2 1097.00  17
   7   0  -3 27536.5 1352.21   3
   7   0  -2 24.2558 70.9859  11
   7   0  -2 124.903 100.085   3
  -7   0   2 53.4450 78.1991  16
   7   0  -1 105951. 2984.01  17
  -7   0   1 108071. 3144.26   1
  -7   0   1 110865. 3170.58  16
   7   0  -1 115407. 3338.67   3
   7   0  -1 101432. 3034.72  11
   7   0   0 26.0935 68.2922  11
  -7   0   0 81.1131 100.060  16
  -7   0  -1 80760.6 2609.76   1
  -7   0  -1 77080.7 2495.13  16
  -7   0  -2 1047.30 230.122  16
  -7   0  -2 430.241 161.309   1
  -7   0  -3 85375.5 2587.64  16
  -7   0  -3 87036.2 2781.24   1
   7   0   3 87477.2 2779.33  13
   7   0   4 86.0875 91.9727  13
   7   0   5 751.939 198.359  13
   7   0   6 45.0087 88.3282  13
   7   0   7 1162.50 196.341  13
   7   0   8 44.5711 46.1066  13
   7  -1 -14 3253.18 231.732  11
   7   1 -14 2841.35 219.635  11
   7   1 -13 8007.37 484.909  11
   7   1 -12 7285.47 536.120  11
   7   1 -11 2784.10 356.622  11
  -7  -1  11 2768.26 296.009   8
   7  -1 -10 4635.29 489.569  11
   7   1 -10 4331.10 461.972  11
  -7  -1  10 3501.36 365.937   8
   7   1  -9 2822.96 439.134  18
   7  -1  -9 2700.57 385.272  11
   7  -1  -9 2127.96 375.080  18
   7   1  -9 1484.00 289.493  11
  -7   1   9 2027.35 279.491  16
  -7  -1   9 1700.86 257.621   8
   7  -1  -8 8631.95 696.904  11
   7   1  -8 8294.79 660.052  11
  -7  -1   8 8254.27 691.780   5
   7   1  -8 8545.37 776.614  18
   7  -1  -8 7822.01 722.600  18
   7  -1  -7 39166.7 1612.60  11
   7   1  -7 38279.8 1551.66  11
  -7  -1   7 40454.9 1670.36   5
  -7  -1   7 38191.7 1460.45  16
   7  -1  -6 32144.9 1383.85  11
   7   1  -6 32683.7 1350.05  11
   7   1  -6 28715.9 1430.75   3
   7  -1  -6 29778.9 1553.68   3
   7  -1  -6 28695.3 1324.92  17
  -7  -1   6 29742.3 1294.19  16
   7  -1  -5 51683.6 2097.62   3
   7  -1  -5 51261.0 1870.55  11
   7   1  -5 52169.7 1789.89  11
   7  -1  -5 48320.8 1779.71  17
  -7  -1   5 55880.8 1895.89  16
   7   1  -5 49241.6 1933.23   3
   7  -1  -4 30672.0 1327.18  11
   7   1  -4 30484.3 1246.22  11
   7  -1  -4 29234.6 1272.44  17
  -7  -1   4 29004.6 1306.30  16
   7  -1  -4 29596.3 1480.26   3
   7  -1  -3 74691.5 2306.22  11
   7  -1  -3 61798.3 2103.36  17
  -7  -1   3 70809.2 2321.69  16
  -7   1   3 72286.8 2333.34  16
   7   1  -3 72935.8 2349.56   3
   7  -1  -3 65604.2 2429.23   3
   7   1  -3 68569.1 2130.92  11
   7  -1  -2 5769.29 525.892  17
  -7   1   2 5324.27 523.092  16
   7   1  -2 4769.57 498.479   3
   7  -1  -2 5181.66 577.931   3
   7  -1  -2 4742.06 489.386  11
   7   1  -1 5918.24 481.111  17
   7  -1  -1 6276.38 549.923  17
  -7  -1   1 5479.99 545.630  16
  -7   1   1 5455.24 530.391  16
   7  -1  -1 6239.95 584.029  14
   7   1  -1 6672.81 620.254  14
   7  -1  -1 5946.07 617.558   3
  -7  -1   1 5746.35 549.892   1
  -7   1   1 5802.70 552.515   1
   7  -1  -1 5925.22 559.154  11
   7  -1   0 3405.00 413.557  17
  -7  -1   0 3696.51 456.007  16
  -7   1   0 3668.99 426.638  16
   7  -1   0 3425.14 434.255  14
   7   1   0 3215.42 430.849  14
  -7  -1   0 2958.44 407.686   1
  -7   1   0 3171.91 414.723   1
   7  -1   0 3627.29 443.782  11
   7  -1   1 9955.17 728.635  17
  -7  -1  -1 10270.8 778.203   1
  -7   1  -1 10236.2 776.241   1
  -7  -1  -1 11514.8 807.228  16
  -7   1  -1 12524.9 797.909  16
   7  -1   1 11955.8 814.837  14
   7   1   1 11955.6 845.166  14
   7  -1   1 12655.5 851.138  11
  -7   1  -2 120.951 104.665   1
  -7  -1  -2 28.3236 90.7672  16
  -7   1  -2 48.0224 62.8299  16
   7  -1   2-29.6650 67.2239  14
   7   1   2 31.4269 71.2160  14
  -7  -1  -2 180.368 130.437   1
  -7  -1  -3 25880.9 1228.88  16
   7  -1   3 26083.7 1271.78  13
   7   1   3 27204.9 1332.29  13
  -7  -1  -3 24508.0 1256.66   1
  -7   1  -3 24292.1 1251.10   1
  -7  -1  -4 5164.88 478.136  16
   7  -1   4 5068.30 523.321  13
   7   1   4 6042.77 574.309  13
   7  -1   5 46337.8 1732.85  13
   7   1   5 50758.2 1819.72  13
   7  -1   6 44860.5 1574.43  13
   7   1   6 45381.7 1613.69  13
   7  -1   7 48425.4 1466.55  13
   7   1   7 50030.2 1514.59  13
   7  -1   8 24793.8 814.845  13
   7   1   8 25382.7 836.941  13
   7  -2 -13 202.029 71.2950  11
   7   2 -13 178.337 61.9708  11
   7  -2 -12 16320.5 757.496  11
   7   2 -12 17269.6 750.117  11
   7  -2 -11 4001.71 398.602  11
   7   2 -11 3612.24 365.216  11
  -7  -2  11 4318.02 381.558   8
   7  -2 -10 50681.2 1755.90  11
   7   2 -10 52187.1 1732.90  11
  -7  -2  10 51358.5 1794.64   5
  -7   2  10 45394.9 1524.73  16
  -7  -2  10 51335.6 1699.96   8
   7  -2  -9 1899.37 309.330  11
   7   2  -9 1805.07 291.055  11
  -7  -2   9 2231.96 341.637   5
  -7  -2   9 2217.05 308.502   8
   7   2  -8 55884.9 2181.37  18
   7  -2  -8 48649.2 1958.28  18
   7   2  -8 52545.8 1815.73  11
  -7  -2   8 54643.6 1990.72   5
   7   2  -7 1569.26 265.870  11
   7   2  -7 1745.28 355.151  18
   7  -2  -7 1476.09 294.002  18
   7  -2  -7 1291.58 287.299  17
  -7  -2   7 1762.85 258.746  16
  -7  -2   7 1841.14 328.211   5
   7  -2  -6 19946.7 1131.34  17
  -7  -2   6 21874.0 1046.08  16
   7  -2  -5 13234.6 871.210  17
  -7  -2   5 14242.1 904.666   5
  -7  -2   5 14382.4 864.007  16
   7  -2  -4 5941.30 549.238  11
   7  -2  -4 5152.45 526.874  17
  -7  -2   4 5138.14 515.969  16
   7  -2  -3 1457.55 275.108  17
  -7  -2   3 1304.78 270.953  16
   7  -2  -3 1730.17 299.462  11
   7  -2  -2 39777.1 1614.88  17
  -7  -2   2 44845.5 1765.81  16
   7  -2  -2 46991.1 1710.51  14
   7   2  -2 47488.7 1813.07  14
   7  -2  -2 44681.4 1918.18   3
   7  -2  -2 42540.3 1716.58  11
   7  -2  -1 1071.65 255.264  11
   7  -2  -1 1279.57 298.667   3
   7  -2  -1 1202.45 251.363  17
  -7   2   1 1336.98 271.065  16
   7  -2  -1 1081.85 235.299  14
   7   2  -1 1169.02 255.219  14
   7  -2   0 71503.6 2373.45  17
  -7  -2   0 74542.7 2465.19  16
  -7   2   0 71019.8 2286.67  16
   7  -2   0 67755.8 2270.17  14
   7   2   0 73623.7 2421.94  14
  -7  -2   0 65671.7 2274.02   1
  -7   2   0 69469.2 2320.38   1
   7  -2   0 74306.9 2443.77  11
   7  -2   1 221.627 130.681  17
  -7   2  -1 27.4305 71.7820   1
  -7  -2  -1 30.2239 88.4231  16
  -7   2  -1 71.1684 82.1205  16
  -7  -2  -1-27.1015 70.9211   1
   7  -2   2 48429.2 1843.21  17
  -7  -2  -2 51567.8 1930.69  16
  -7  -2  -2 47496.4 1826.97   1
  -7   2  -2 48577.4 1854.22   1
   7  -2   2 52374.1 1840.85  13
   7   2   2 51488.0 1909.80  13
  -7  -2  -3 8339.60 663.352  16
   7  -2   3 8086.28 627.537   9
   7  -2   3 8875.10 654.101  13
   7   2   3 9618.35 722.777  13
  -7  -2  -4 8819.18 642.121  16
   7  -2   4 8568.10 623.794  13
   7   2   4 8393.11 650.228  13
   7  -2   5 2132.47 285.460  13
   7   2   5 2511.07 326.930  13
   7  -2   6 228.885 91.7221  13
   7   2   6 344.923 113.008  13
  -7  -2  -7 203.197 73.5266  15
   7  -2   7 267.506 71.1816  13
   7   2   7 339.255 93.7100  13
   7  -3 -12 1711.91 188.727  10
   7  -3 -11 4584.95 359.380  11
  -7  -3  11 5155.67 421.942   5
   7  -3 -10 121.068 78.4010  11
  -7  -3  10 64.2424 68.6452   5
   7  -3  -9 20.3842 65.3280  11
  -7  -3   9 99.4227 79.6559   5
   7  -3  -8 6829.92 560.413  11
  -7  -3   8 7165.82 616.187   5
   7  -3  -7 24366.3 1144.54  11
   7  -3  -6 10708.7 734.801  11
   7  -3  -6 10494.0 818.497  17
  -7  -3   6 10252.7 655.841  16
  -7  -3   6 9825.34 764.472   5
   7  -3  -6 9155.97 804.121   3
   7  -3  -5 67756.2 2343.62  17
  -7  -3   5 67058.4 2241.83   5
  -7  -3   5 66460.2 2139.74  16
   7  -3  -5 64119.3 2161.29  11
   7  -3  -4 60415.8 2239.39  17
  -7  -3   4 66332.0 2219.57   5
  -7  -3   4 69889.2 2242.61  16
   7  -3  -4 63321.0 2385.60   3
   7  -3  -4 68911.9 2254.53  11
   7  -3  -3 8098.76 679.960  17
  -7  -3   3 9180.79 709.640  16
   7  -3  -3 8260.56 748.332   3
   7  -3  -3 9013.22 691.640  11
   7  -3  -2 37866.6 1619.13  17
  -7  -3   2 40680.6 1688.91  16
   7  -3  -2 41947.8 1807.86   3
   7  -3  -2 41949.3 1679.40  11
   7  -3  -1-35.4315 92.7071   3
   7  -3  -1 137.531 95.2079  17
  -7  -3   0 7581.72 675.736  16
  -7   3   0 6879.02 558.889  16
  -7  -3  -1 149.116 110.369  16
  -7   3  -1 123.052 92.9605  16
   7  -3   1 20.1575 58.9948  13
   7   3   1 315.403 138.365  13
  -7  -3  -2 23147.9 1181.20  16
   7  -3   2 19293.9 922.437  13
   7   3   2 21998.5 1050.24  13
  -7  -3  -3 1943.42 315.164  16
   7  -3   3 1909.23 308.739   9
   7  -3   3 1837.33 248.017  13
   7   3   3 1747.41 269.169  13
   7  -3   4 26463.7 1126.05   9
   7   3   4 27828.3 1097.05  13
   7  -3   5 6332.47 420.934   9
  -7  -3  -5 7585.04 566.142  15
   7  -3   5 7207.53 500.580   7
  -7  -3  -6 47783.5 1505.02  15
  -7  -3  -7 9040.04 414.069  15
   7  -4 -11 20165.1 685.775  10
   7  -4 -10 6892.22 437.032  10
  -7  -4  10 8438.75 539.269   5
   7  -4  -9 27679.0 1053.25  10
   7  -4  -8 1414.26 226.323  10
  -7  -4   8 1775.07 283.617   5
   7  -4  -8 1533.38 227.632  11
  -7  -4   7 3235.76 388.738   5
   7  -4  -7 2884.43 330.636  11
   7  -4  -6 531.563 152.649  11
  -7  -4   6 413.729 156.262   5
   7  -4  -5 229.818 116.645  11
  -7  -4   5 374.971 126.670  16
  -7  -4   5 525.953 168.566   5
  -7  -4   4 8436.29 619.003  16
   7  -4  -4 9073.10 660.111  11
  -7  -4   3 8240.28 646.185  16
   7  -4  -3 7764.14 620.411  11
   7  -4  -2 3952.07 459.382   4
  -7  -4   2 3826.43 441.730  16
   7  -4  -2 3964.98 435.720  11
   7  -4  -1 35380.6 1454.48   4
  -7  -4   1 37929.8 1578.91  16
  -7   4   0 4136.40 385.827  16
  -7  -4  -1 76654.3 2482.75  16
   7  -4   2 7375.51 607.078   9
   7  -4   3 44869.2 1613.64   9
  -7  -4  -3 48307.4 1695.29  15
   7  -4   4 1258.20 216.118   7
   7  -4   4 1229.88 201.622   9
   7  -4   5 15145.0 620.877   9
  -7  -4  -5 17463.3 764.205  15
   7  -4   5 17322.7 706.648   7
  -7  -4  -6 110.470 53.9050  15
   7  -5 -10 103.920 49.4272   4
   7  -5  -9 3848.20 344.638   4
  -7  -5   8 567.056 133.629   5
  -7  -5   7 14911.6 730.449   5
   7  -5  -5 49537.4 1799.19   4
   7  -5  -4 2495.95 348.738   4
   7  -5  -3 47882.3 1746.92   4
   7  -5  -2 3215.00 381.015   4
  -7   5   1 20273.6 833.815  16
   7  -5  -1 19123.6 915.514   4
   7  -5   0 152.549 82.3416   4
   7  -5   1 624.478 168.464   9
  -7  -5  -1 782.438 156.551  15
   7  -5   2 5379.29 433.520   9
  -7  -5  -2 4659.34 375.953  15
   7  -5   3 37010.3 1233.73   9
  -7  -5  -3 38881.3 1215.70  15
   7  -5   3 38101.4 1259.94   7
   7  -5   4 30.1577 39.4578   7
   7  -5   4 55.0422 46.4850   9
  -7  -5  -4 9.65105 37.8821  15
   7  -6  -6 4981.46 366.717   4
   7  -6  -5 252.944 90.2036   4
   7  -6  -4 2094.66 249.424   4
   7  -6  -3 7133.46 428.420   9
   7  -6  -3 7575.21 470.006   4
   7  -6  -2 5571.97 392.048   9
   7  -6  -2 6374.58 406.544   4
   7  -6  -1 19316.1 757.898   9
   7  -6  -1 16218.2 652.067   4
   7  -6   0 24069.6 841.992   9
   7  -6   0 20620.7 731.053   7
   7  -6   1 6180.42 332.005   7
   8   0 -13 18.6855 36.6698  11
   8   0 -12 12209.9 617.412  11
   8   0 -11-18.0646 62.5279  11
   8   0 -10 40054.0 1490.05  11
   8   0  -9 46.6657 91.5801  11
   8   0  -8 94454.2 2761.75  11
  -8   0   8 91556.5 2608.38  16
   8   0  -7 25.0082 80.1412  11
  -8   0   7 23.6337 69.1381  16
   8   0  -6 51165.6 1827.34  11
  -8   0   6 53635.7 1872.32  16
   8   0  -5 173.938 102.799  11
   8   0  -5-32.6580 95.5363   3
   8   0  -4 51676.5 2042.56   3
   8   0  -4 55433.1 1906.68  11
   8   0  -3 126.060 93.3216  11
   8   0  -3 32.2170 73.0410   3
   8   0  -2 8261.54 605.019  17
  -8   0   2 10645.3 763.058  16
   8   0  -2 8966.34 747.682   3
   8   0  -2 9013.07 673.877  11
   8   0  -1 126.984 93.9818  11
   8   0  -1 24.4961 64.1037  17
  -8   0   1 55.8912 73.1280  16
   8   0   0 113996. 3231.64  17
  -8   0   0 123001. 3405.73  16
  -8   0  -1 102.511 94.8522  16
  -8   0  -2 153956. 4001.75  16
   8   0   2 159205. 4172.78  13
  -8   0  -3 112.399 77.5426  16
   8   0   3 170.117 118.988  13
   8   0   4 27066.0 1158.78  13
   8   0   5 104.531 82.2039  13
   8   0   6 8194.66 460.395  13
   8   1 -13 6632.25 332.056  11
   8  -1 -12 13960.5 655.434  11
   8   1 -12 13979.8 629.241  11
   8  -1 -11 12007.7 680.569  11
   8   1 -11 12386.4 662.066  11
   8  -1 -10 248.371 118.123  11
   8   1 -10 230.704 103.811  11
   8  -1  -9 876.574 213.958  11
   8   1  -9 700.913 174.224  11
  -8   1   9 799.014 168.227  16
   8  -1  -8 2612.29 359.912  11
   8   1  -8 2526.17 338.783  11
  -8  -1   8 2792.20 316.975  16
  -8   1   8 2537.88 332.253  16
   8  -1  -7 2284.18 351.684  11
   8   1  -7 3200.64 375.619  11
  -8  -1   7 3004.84 358.697  16
  -8   1   7 3633.69 408.934  16
   8  -1  -6 28517.0 1281.36  11
   8   1  -6 26998.5 1189.36  11
  -8  -1   6 30179.3 1288.90  16
  -8   1   6 29275.4 1300.62  16
   8   1  -5 15994.9 873.442  11
   8  -1  -5 17006.6 956.069  11
  -8  -1   5 16819.1 958.916  16
  -8   1   5 16691.0 969.090  16
   8  -1  -5 14442.8 1018.68   3
   8  -1  -4 33669.9 1440.13  17
  -8  -1   4 41436.6 1622.11  16
   8  -1  -4 41254.0 1772.89   3
   8   1  -4 38441.9 1449.45  11
   8  -1  -4 35017.9 1504.31  11
   8  -1  -3 14163.4 850.424  17
  -8   1   3 17006.8 987.743  16
   8  -1  -3 15334.0 1027.36   3
   8   1  -3 14508.5 827.324  11
   8  -1  -3 16293.1 949.517  11
   8  -1  -2 40762.8 1594.83  17
  -8  -1   2 45987.0 1794.23  16
  -8   1   2 44698.4 1738.75  16
   8  -1  -2 46008.6 1775.01  14
   8   1  -2 47311.4 1848.64  14
   8  -1  -2 42686.3 1861.20   3
   8  -1  -2 44383.9 1736.21  11
   8  -1  -1 18288.0 1002.38  17
  -8  -1   1 21089.0 1128.57  16
  -8   1   1 20779.3 1092.09  16
   8  -1  -1 20162.0 1082.22  14
   8   1  -1 20256.1 1115.94  14
   8  -1  -1 20349.2 1086.85  11
   8  -1   0 25821.3 1228.16  17
  -8  -1   0 27325.6 1310.09  16
  -8   1   0 26106.2 1234.61  16
   8  -1   0 28160.2 1296.70  11
  -8  -1  -1 10413.3 744.006  16
  -8   1  -1 9254.34 667.952  16
  -8  -1  -2 26197.1 1191.40  16
  -8   1  -2 23242.5 1052.21  16
   8  -1   2 26472.0 1217.97  13
   8   1   2 26149.4 1251.02  13
  -8  -1  -3 40.4900 52.9816  16
   8  -1   3 111.954 101.478  13
   8   1   3 47.6390 76.3379  13
  -8  -1  -4 6113.87 427.020  16
   8  -1   4 7055.30 522.192  13
   8  -1   5 19433.9 839.833  13
   8   1   5 20169.2 877.782  13
   8  -1   6 25583.0 833.387  13
   8   1   6 26889.5 867.231  13
   8  -2 -12 40.9976 40.2344  11
   8  -2 -11 12893.2 642.366  11
   8   2 -11 11738.2 530.411  11
   8   2 -10 2631.05 269.485  11
   8   2  -9 35018.6 1228.74  11
  -8   2   9 36904.8 1304.34  16
  -8   2   8 21918.7 1032.47  16
   8  -2  -7 33259.3 1391.10  11
  -8  -2   7 32514.7 1249.30  16
   8  -2  -6 831.008 214.260  11
  -8  -2   6 978.798 217.541  16
  -8  -2   5 23604.8 1149.02  16
   8  -2  -5 24137.1 1186.55  11
   8  -2  -4 133.832 121.338  11
   8  -2  -4 276.926 143.237   3
   8  -2  -4 52.7578 84.5831  17
  -8  -2   4 297.276 127.510  16
  -8   2   4 134.881 111.641  16
   8  -2  -3 767.789 209.554  11
   8  -2  -3 1007.86 261.487   3
   8  -2  -3 555.859 162.908  17
  -8  -2   3 565.487 185.375  16
  -8   2   3 508.679 179.035  16
   8  -2  -2 3289.82 401.289  17
  -8   2   2 3320.52 403.090  16
   8  -2  -2 3800.99 451.243  11
  -8  -2   1 17514.0 1012.73  16
  -8   2   1 16371.7 930.017  16
   8  -2  -1 16389.1 972.889  11
  -8  -2   0 963.960 235.299  16
  -8   2   0 890.552 201.232  16
  -8  -2  -1 67365.3 2230.57  16
  -8   2  -1 60954.9 1981.19  16
   8  -2   1 65452.6 2074.37  13
  -8  -2  -2 1740.11 286.327  16
   8  -2   2 1936.61 269.020   9
   8  -2   2 1721.12 263.312  13
   8   2   2 1751.51 283.464  13
  -8  -2  -3 33136.6 1304.87  16
   8  -2   3 33860.8 1257.47  13
   8  -2   4 880.320 160.391  13
   8   2   4 871.079 174.816  13
  -8  -2  -5 17512.5 766.321  15
   8  -2   5 15638.6 635.456  13
   8   2   5 17663.9 699.595  13
   8  -3 -11 6875.03 378.143  11
  -8   3  10 703.802 126.328  16
   8  -3 -10 844.380 152.211  11
   8  -3  -9 163.941 88.4827  11
  -8   3   9 142.259 85.3153  16
   8  -3  -8 7239.52 528.808  11
   8  -3  -7 611.402 168.212  11
  -8  -3   6 5358.39 440.565  16
   8  -3  -6 5812.74 509.313  11
  -8  -3   5 31107.7 1286.78  16
   8  -3  -5 32899.1 1365.46  11
  -8  -3   4 1891.21 302.057  16
  -8  -3   3 46084.1 1733.23  16
  -8   3   3 44218.9 1678.50  16
  -8  -3   2 6762.56 594.886  16
  -8   3   2 6528.85 548.684  16
  -8   3   1 44017.8 1581.71  16
   8  -3  -1 44242.8 1691.82  11
  -8   3   0 14050.0 745.660  16
   8  -3   0 13014.5 684.060  13
   8   3   0 13760.5 765.186  13
  -8  -3  -1 7891.18 608.291  16
   8   3   1 7214.46 515.353  13
  -8  -3  -2 560.357 159.891  16
   8  -3   2 618.139 161.083   9
   8   3   2 531.047 129.128  13
   8  -3   3 401.843 105.445   9
   8  -3   4 108.190 60.9975   7
  -8  -3  -4 349.484 108.038  15
  -8  -3  -5 21169.8 762.791  15
  -8   4  10 8878.33 380.647  16
  -8   4   9 17832.7 712.993  16
   8  -4  -8 31495.0 1061.33  11
   8  -4  -7 14480.7 707.859  11
   8  -4  -6 48942.5 1584.66  11
   8  -4  -5 3970.70 388.706  11
   8  -4  -4 2326.76 318.316   4
  -8  -4   4 2226.72 284.622  16
   8  -4  -4 1869.60 274.915  11
   8  -4  -3 1800.35 267.388   4
  -8  -4   3 1926.62 281.827  16
  -8   4   3 1763.89 257.780  16
   8  -4  -3 1972.77 281.822  11
  -8  -4   2 10178.5 675.657  16
  -8   4   2 9814.46 609.121  16
  -8  -4   1 5144.95 465.270  16
  -8   4   1 4207.44 359.614  16
  -8  -4   1 4294.52 379.543  15
  -8  -4   0 34507.6 1256.83  15
   8  -4   1 11657.1 680.809   9
  -8  -4  -1 13123.9 693.459  15
   8  -4   2 41353.8 1344.07   9
  -8  -4  -2 43244.5 1390.83  15
   8  -4   3 2296.09 211.225   9
  -8  -4  -3 2997.85 273.867  15
   8  -4   3 2784.05 260.958   7
   8  -5  -8 1409.11 171.908   4
  -8   5   7 145.052 71.5735  16
   8  -5  -7 155.619 75.9313   4
   8  -5  -6 16948.9 754.688   4
  -8   5   5 775.689 149.382  16
   8  -5  -5 908.271 172.832   4
   8  -5  -4 33399.1 1160.67   4
  -8   5   4 34561.5 1136.97  16
   8  -5  -3 1840.51 220.559   4
  -8   5   3 2185.10 227.591  16
  -8   5   2 35787.8 1054.79  16
   8  -5  -1 1397.99 211.280   9
   8  -5   0 15451.6 685.980   9
   8  -5   0 14588.7 655.379   7
   8  -5   1 107.741 52.7827   9
   8  -5   2 7.70272 28.5026   7
   9   0 -12 14.5959 27.0060  11
   9   0 -11 3083.31 267.165  11
   9   0 -10-28.7692 56.4587  11
   9   0  -9 26789.9 1055.84  11
   9   0  -8 56.2598 69.4124  11
  -9   0   8 115.320 74.6785  16
  -9   0   7 45026.1 1561.40  16
   9   0  -7 44835.4 1563.28  11
   9   0  -6 21.0208 55.0092  11
  -9   0   6 133.799 96.7631  16
  -9   0   5 57002.7 1921.84  16
   9   0  -5 53352.5 1811.28  11
   9   0  -4 87.6728 86.0409  11
  -9   0   3 7703.89 621.131  16
   9   0  -3 6683.43 539.106  11
   9   0  -2 20.9738 72.6037  11
  -9   0   2 99.1273 91.7052  16
  -9   0   1 4650.99 465.316  16
  -9   0   0-21.8272 102.959  16
  -9   0  -1 11716.1 683.502  16
   9   0   1 13198.2 753.228  13
  -9   0  -2-14.1896 41.5093  16
   9   0   2 18.1661 67.2196  13
   9   0   3 36350.0 1228.64  13
   9   0   4 375.563 95.6266  13
   9  -1 -12 2820.06 211.369  11
   9   1 -11 6563.98 355.323  11
   9  -1 -11 7911.55 433.851  11
   9   1 -10 4854.44 340.609  11
   9  -1 -10 4976.11 386.249  11
   9   1  -9 13599.7 655.450  11
   9  -1  -9 13896.7 721.855  11
   9  -1  -8 2475.01 311.943  11
  -9   1   8 2864.07 307.285  16
   9   1  -8 2647.74 284.653  11
   9   1  -7 1084.58 189.041  11
   9  -1  -7 768.213 181.135  11
  -9  -1   7 1090.32 196.924  16
  -9   1   7 830.315 184.498  16
  -9  -1   6 2954.46 352.629  16
  -9   1   6 3267.52 372.291  16
   9   1  -6 2739.37 312.692  11
   9  -1  -6 2460.45 331.219  11
  -9  -1   5 6602.72 550.056  16
   9   1  -5 6003.29 462.695  11
   9  -1  -5 5996.36 517.406  11
  -9  -1   4 18325.3 992.605  16
  -9   1   4 18805.9 1001.97  16
   9  -1  -4 19787.2 997.010  11
  -9   1   3 31836.0 1352.01  16
   9  -1  -3 31041.6 1311.37  11
  -9  -1   2 17600.6 960.801  16
  -9   1   2 16462.5 902.594  16
   9  -1  -2 16112.0 891.122  11
  -9  -1   1 31907.3 1342.33  16
  -9   1   1 30699.6 1275.81  16
  -9  -1   0 5259.80 477.891  16
  -9   1   0 5107.20 449.399  16
  -9  -1  -1 31830.0 1229.42  16
  -9   1  -1 30137.7 1127.54  16
   9  -1   1 30282.6 1203.78  13
   9   1   1 32784.8 1273.24  13
  -9  -1  -2 518.210 131.238  16
   9  -1   2 553.855 133.565  13
   9   1   2 661.525 161.436  13
   9  -1   3 79.1913 54.6123  13
   9   1   3 28.2445 48.8918  13
   9  -1   4 132.737 58.2295  13
   9   1   4 111.922 56.5264  13
   9  -2  -9 30.3649 62.8214  11
  -9   2   9 86.7217 56.1570  16
  -9   2   8 12611.5 664.548  16
   9  -2  -8 12630.6 691.000  11
   9  -2  -7 38.8976 67.3437  11
  -9   2   7 187.425 88.4269  16
  -9  -2   6 44420.9 1503.64  16
   9  -2  -6 44327.2 1571.88  11
  -9  -2   5 4437.59 429.430  16
  -9   2   5 3803.08 401.335  16
   9  -2  -5 4137.80 421.281  11
  -9  -2   4 20281.2 1000.62  16
  -9   2   4 19206.3 969.639  16
   9  -2  -4 17984.0 956.277  11
   9  -2  -3 225.917 110.670  11
  -9  -2   3 446.912 156.967  16
  -9   2   3 131.600 90.8406  16
   9  -2  -2 601.183 170.024  11
  -9   2   2 268.317 123.973  16
  -9  -2   1 1775.39 288.215  16
  -9   2   1 2096.29 278.635  16
  -9  -2   0 18240.5 910.878  16
  -9   2   0 17777.4 797.848  16
   9  -2   0 17220.2 804.652  13
   9   2   0 18203.4 869.105  13
  -9  -2  -1 2006.66 262.394  16
   9  -2   1 1506.67 206.552  13
   9   2   1 1774.76 242.476  13
  -9  -2  -2 28850.2 1026.03  16
   9  -2   2 26129.4 922.831  13
   9   2   2 28147.2 988.058  13
   9  -2   3 4317.07 276.863  13
   9   2   3 4454.70 297.676  13
  -9  -2  -4 42963.5 1172.84  15
   9  -3 -10 4921.98 291.706  11
  -9   3   9 3235.74 252.491  16
   9  -3  -9 3054.77 266.095  11
   9  -3  -8 384.050 112.392  11
  -9   3   8 486.761 115.776  16
   9  -3  -7 9436.98 565.332  11
  -9   3   6 9086.07 575.606  16
  -9  -3   5 349.538 108.195  16
  -9   3   5 292.140 114.738  16
  -9  -3   4 9792.01 607.201  16
  -9   3   4 10209.8 629.387  16
  -9  -3   3 12013.3 701.248  16
  -9   3   3 12568.4 685.917  16
   9  -3  -3 11811.8 699.177  11
  -9  -3   2 19539.3 921.701  16
  -9   3   2 18323.6 827.334  16
  -9   3   1 21258.5 845.010  16
  -9  -3   0 25906.6 1043.36  16
   9  -3   1 6024.79 360.490   9
  -9  -3  -2 4424.70 328.556  15
  -9   4   8 84.3955 46.8667  16
   9  -4  -8 65.3131 47.2991   4
   9  -4  -7 33524.2 1080.19   4
   9  -4  -7 36586.6 1043.96  11
   9  -4  -6 2131.56 227.709   4
   9  -4  -6 2390.10 237.529  11
   9  -4  -5 18047.2 726.310   4
  -9   4   5 25719.5 881.800  16
  -9   4   4 1109.00 170.677  16
  -9   4   3 5741.20 371.413  16
  -9   4   2 557.071 105.073  16
   9  -4  -1 12.6081 43.6411   9
   9  -4   0 4772.15 314.999   9
   9  -4   1 5689.40 327.410   7
  10   0  -9 18.0290 33.3582  11
  10   0  -8 15434.6 644.948  11
  10   0  -7 12.4888 51.6668  11
 -10   0   7-13.1359 48.6064  16
 -10   0   6 16816.1 758.064  16
  10   0  -6 14032.6 662.533  11
  10   0  -5 13.5757 46.9984  11
 -10   0   5 186.975 96.9343  16
  10   0  -4 19450.1 791.497  11
 -10   0   3 17.6891 65.4557  16
 -10   0   2 32125.4 1178.29  16
 -10   0   1 14.8962 55.1219  16
  10   0  -1 29.4872 54.5573  13
 -10   0   0 34087.1 1117.35  16
  10   0   0 37899.5 1193.00  13
 -10   0  -1 42.8071 30.9617  16
  10   0   1 10.7006 34.2952  13
  10   0   2 3764.92 244.859  13
  10  -1 -10 22174.9 697.630  11
  10  -1  -9 3142.50 254.142  11
 -10   1   8 10906.6 502.974  16
  10  -1  -8 11332.3 554.216  11
 -10  -1   7 5632.97 357.225  16
 -10   1   7 5201.12 375.584  16
  10  -1  -7 5402.47 388.038  11
 -10  -1   6 8647.76 506.826  16
 -10   1   6 8864.22 528.419  16
  10  -1  -6 8252.64 507.638  11
  10  -1  -5 488.149 124.901  11
 -10  -1   5 354.909 109.972  16
 -10  -1   4 3357.38 332.032  16
 -10   1   4 3384.55 333.060  16
  10  -1  -4 2676.68 290.279  11
 -10   1   3 5423.72 422.316  16
 -10  -1   2 23719.5 965.786  16
 -10   1   2 22760.8 920.022  16
 -10  -1   1 28813.5 1030.24  16
 -10   1   1 27177.0 966.044  16
  10  -1  -1 25656.0 957.262  13
  10   1  -1 27229.1 1001.73  13
 -10  -1   0 25420.6 894.103  16
 -10   1   0 22784.9 793.438  16
  10  -1   0 25531.2 881.611  13
  10   1   0 25939.8 909.989  13
  10  -1   1 15264.8 570.613  13
  10   1   1 16909.6 605.863  13
  10  -2  -9 7826.65 382.949  11
  10  -2  -8 188.850 76.4803  11
 -10   2   8 131.740 55.1855  16
 -10   2   7 26545.9 916.942  16
  10  -2  -7 26758.9 939.435  11
 -10  -2   6 4414.27 304.462  16
  10  -2  -6 4590.17 355.888  11
 -10  -2   5 17586.4 730.060  16
 -10   2   5 17257.5 753.412  16
  10  -2  -5 17339.2 759.650  11
 -10  -2   4 5922.23 410.771  16
 -10   2   4 5229.45 389.154  16
  10  -2  -4 4893.10 381.738  11
 -10  -2   3 15023.2 696.993  16
 -10   2   3 13644.5 650.953  16
 -10   2   2 200.833 81.8048  16
  10  -2  -2 98.6096 54.7672  13
  10   2  -2 56.9730 51.6760  13
 -10  -2   1 4936.50 351.675  16
 -10   2   1 3742.28 268.687  16
  10  -2  -1 4161.91 272.632  13
  10   2  -1 4711.93 306.793  13
 -10  -2   0 220.395 75.2424  16
  10  -2   0 100.142 40.1882  13
  10   2   0 117.458 48.0824  13
 -10   3   6 227.184 69.0982  16
 -10   3   5 634.854 113.343  16
 -10  -3   4 91.2638 52.1146  16
 -10   3   4 216.625 68.2185  16
 -10  -3   3 9307.63 449.946  16
 -10   3   3 7802.81 393.498  16
 -10  -3   2 3106.51 246.124  16
 -11   0   5 17439.7 598.840  16
  11   0  -4-7.38890 25.5756  13
 -11   0   3 12928.7 479.581  16
  11   0  -3 11814.5 462.435  13
 -11  -1   4 13.4219 24.8360  16
 -11   1   4 34.6420 28.6662  16
   0   0   0    0.00    0.00   0

TITL tf-10 in P2(1)/n
REM P2(1)/n (#14 in standard setting)
CELL 1.54184   8.788657   6.712552  12.200434  90.0000 107.2847  90.0000
ZERR    4.00   0.000179   0.000125   0.000245   0.0000   0.0022   0.0000
LATT  1
SYMM -x+1/2, y+1/2,-z+1/2
SFAC C H N O Se
UNIT 28.00 20.00 4.00 4.00 4.00
TREF
HKLF 4
END
;
_shelx_hkl_checksum                71486
_olex2_submission_special_instructions  'No special instructions were received'
_oxdiff_exptl_absorpt_empirical_details
;
Empirical correction (ABSPACK) includes:
- Absorption correction using spherical harmonics
- Frame scaling
;
_oxdiff_exptl_absorpt_empirical_full_max  1.361
_oxdiff_exptl_absorpt_empirical_full_min  0.813
